Program Version,EnergyPlus, Version 8.6.0-198c6a3cff, YMD=2017.10.03 08:30,IDD_Version 8.6.0
   ************* IDF Context for following error/warning message:
   ************* Note -- lines truncated at 300 characters, if necessary...
   *************  685337 EnergyManagementSystem:Program,
   ************* indicated Name=DeliveredHeatingCoolingProgram_10
   ************* Only last 10 lines before error line shown.....
   *************  685356       Set f_supp = (E_supp + E_supp_fb) / (x + E_supp + E_supp_fb),
   *************  685357    Else,
   *************  685358       Set f_supp = 0,
   *************  685359    EndIf,
   *************  685360    Set EMSDeliveredHeating_10 = EMSDeliveredHeatingInclDucts_10-(EMSHeatingDuctLosses_10*(1-f_supp)),
   *************  685361    Set EMSDeliveredHeatingSupp_10 = EMSDeliveredHeatingSupp_10-(EMSHeatingDuctLosses_10*f_supp),
   *************  685362    Set EMSDeliveredHeatingWithSupp_10 = EMSDeliveredHeating_10 + EMSDeliveredHeatingSupp_10,
   *************  685363    Set EMSDeliveredCoolingSens_10 = EMSDeliveredCoolingSensInclDucts_10 - EMSCoolingDuctLossesSens_10,
   *************  685364    Set DehumRemovedWater = 0,
   *************  685365    Set EMSDeliveredCoolingLatentHVAC_10 = (CoilLatentCooling_10 + LC_fb) - EMSCoolingDuctLossesLatent_10,
   ** Warning ** IP: IDF line~685365 Alpha Argument length exceeds maximum, will be truncated=   Set EMSDeliveredCoolingLatentHVAC_10 = (CoilLatentCooling_10 + LC_fb) - EMSCoolingDuctLossesLatent_1
   **   ~~~   ** Will be processed as Alpha=SET EMSDELIVEREDCOOLINGLATENTHVAC_10 = (COILLATENTCOOLING_10 + LC_FB) - EMSCOOLINGDUCTLOSSESLATENT_10
   ************* IDF Context for following error/warning message:
   ************* Note -- lines truncated at 300 characters, if necessary...
   *************  685535 EnergyManagementSystem:Program,
   ************* indicated Name=DeliveredHeatingCoolingProgram_11
   ************* Only last 10 lines before error line shown.....
   *************  685554       Set f_supp = (E_supp + E_supp_fb) / (x + E_supp + E_supp_fb),
   *************  685555    Else,
   *************  685556       Set f_supp = 0,
   *************  685557    EndIf,
   *************  685558    Set EMSDeliveredHeating_11 = EMSDeliveredHeatingInclDucts_11-(EMSHeatingDuctLosses_11*(1-f_supp)),
   *************  685559    Set EMSDeliveredHeatingSupp_11 = EMSDeliveredHeatingSupp_11-(EMSHeatingDuctLosses_11*f_supp),
   *************  685560    Set EMSDeliveredHeatingWithSupp_11 = EMSDeliveredHeating_11 + EMSDeliveredHeatingSupp_11,
   *************  685561    Set EMSDeliveredCoolingSens_11 = EMSDeliveredCoolingSensInclDucts_11 - EMSCoolingDuctLossesSens_11,
   *************  685562    Set DehumRemovedWater = 0,
   *************  685563    Set EMSDeliveredCoolingLatentHVAC_11 = (CoilLatentCooling_11 + LC_fb) - EMSCoolingDuctLossesLatent_11,
   ** Warning ** IP: IDF line~685563 Alpha Argument length exceeds maximum, will be truncated=   Set EMSDeliveredCoolingLatentHVAC_11 = (CoilLatentCooling_11 + LC_fb) - EMSCoolingDuctLossesLatent_1
   **   ~~~   ** Will be processed as Alpha=SET EMSDELIVEREDCOOLINGLATENTHVAC_11 = (COILLATENTCOOLING_11 + LC_FB) - EMSCOOLINGDUCTLOSSESLATENT_11
   ************* IDF Context for following error/warning message:
   ************* Note -- lines truncated at 300 characters, if necessary...
   *************  685733 EnergyManagementSystem:Program,
   ************* indicated Name=DeliveredHeatingCoolingProgram_12
   ************* Only last 10 lines before error line shown.....
   *************  685752       Set f_supp = (E_supp + E_supp_fb) / (x + E_supp + E_supp_fb),
   *************  685753    Else,
   *************  685754       Set f_supp = 0,
   *************  685755    EndIf,
   *************  685756    Set EMSDeliveredHeating_12 = EMSDeliveredHeatingInclDucts_12-(EMSHeatingDuctLosses_12*(1-f_supp)),
   *************  685757    Set EMSDeliveredHeatingSupp_12 = EMSDeliveredHeatingSupp_12-(EMSHeatingDuctLosses_12*f_supp),
   *************  685758    Set EMSDeliveredHeatingWithSupp_12 = EMSDeliveredHeating_12 + EMSDeliveredHeatingSupp_12,
   *************  685759    Set EMSDeliveredCoolingSens_12 = EMSDeliveredCoolingSensInclDucts_12 - EMSCoolingDuctLossesSens_12,
   *************  685760    Set DehumRemovedWater = 0,
   *************  685761    Set EMSDeliveredCoolingLatentHVAC_12 = (CoilLatentCooling_12 + LC_fb) - EMSCoolingDuctLossesLatent_12,
   ** Warning ** IP: IDF line~685761 Alpha Argument length exceeds maximum, will be truncated=   Set EMSDeliveredCoolingLatentHVAC_12 = (CoilLatentCooling_12 + LC_fb) - EMSCoolingDuctLossesLatent_1
   **   ~~~   ** Will be processed as Alpha=SET EMSDELIVEREDCOOLINGLATENTHVAC_12 = (COILLATENTCOOLING_12 + LC_FB) - EMSCOOLINGDUCTLOSSESLATENT_12
   ************* IDF Context for following error/warning message:
   ************* Note -- lines truncated at 300 characters, if necessary...
   *************  685931 EnergyManagementSystem:Program,
   ************* indicated Name=DeliveredHeatingCoolingProgram_13
   ************* Only last 10 lines before error line shown.....
   *************  685950       Set f_supp = (E_supp + E_supp_fb) / (x + E_supp + E_supp_fb),
   *************  685951    Else,
   *************  685952       Set f_supp = 0,
   *************  685953    EndIf,
   *************  685954    Set EMSDeliveredHeating_13 = EMSDeliveredHeatingInclDucts_13-(EMSHeatingDuctLosses_13*(1-f_supp)),
   *************  685955    Set EMSDeliveredHeatingSupp_13 = EMSDeliveredHeatingSupp_13-(EMSHeatingDuctLosses_13*f_supp),
   *************  685956    Set EMSDeliveredHeatingWithSupp_13 = EMSDeliveredHeating_13 + EMSDeliveredHeatingSupp_13,
   *************  685957    Set EMSDeliveredCoolingSens_13 = EMSDeliveredCoolingSensInclDucts_13 - EMSCoolingDuctLossesSens_13,
   *************  685958    Set DehumRemovedWater = 0,
   *************  685959    Set EMSDeliveredCoolingLatentHVAC_13 = (CoilLatentCooling_13 + LC_fb) - EMSCoolingDuctLossesLatent_13,
   ** Warning ** IP: IDF line~685959 Alpha Argument length exceeds maximum, will be truncated=   Set EMSDeliveredCoolingLatentHVAC_13 = (CoilLatentCooling_13 + LC_fb) - EMSCoolingDuctLossesLatent_1
   **   ~~~   ** Will be processed as Alpha=SET EMSDELIVEREDCOOLINGLATENTHVAC_13 = (COILLATENTCOOLING_13 + LC_FB) - EMSCOOLINGDUCTLOSSESLATENT_13
   ************* IDF Context for following error/warning message:
   ************* Note -- lines truncated at 300 characters, if necessary...
   *************  686129 EnergyManagementSystem:Program,
   ************* indicated Name=DeliveredHeatingCoolingProgram_14
   ************* Only last 10 lines before error line shown.....
   *************  686148       Set f_supp = (E_supp + E_supp_fb) / (x + E_supp + E_supp_fb),
   *************  686149    Else,
   *************  686150       Set f_supp = 0,
   *************  686151    EndIf,
   *************  686152    Set EMSDeliveredHeating_14 = EMSDeliveredHeatingInclDucts_14-(EMSHeatingDuctLosses_14*(1-f_supp)),
   *************  686153    Set EMSDeliveredHeatingSupp_14 = EMSDeliveredHeatingSupp_14-(EMSHeatingDuctLosses_14*f_supp),
   *************  686154    Set EMSDeliveredHeatingWithSupp_14 = EMSDeliveredHeating_14 + EMSDeliveredHeatingSupp_14,
   *************  686155    Set EMSDeliveredCoolingSens_14 = EMSDeliveredCoolingSensInclDucts_14 - EMSCoolingDuctLossesSens_14,
   *************  686156    Set DehumRemovedWater = 0,
   *************  686157    Set EMSDeliveredCoolingLatentHVAC_14 = (CoilLatentCooling_14 + LC_fb) - EMSCoolingDuctLossesLatent_14,
   ** Warning ** IP: IDF line~686157 Alpha Argument length exceeds maximum, will be truncated=   Set EMSDeliveredCoolingLatentHVAC_14 = (CoilLatentCooling_14 + LC_fb) - EMSCoolingDuctLossesLatent_1
   **   ~~~   ** Will be processed as Alpha=SET EMSDELIVEREDCOOLINGLATENTHVAC_14 = (COILLATENTCOOLING_14 + LC_FB) - EMSCOOLINGDUCTLOSSESLATENT_14
   ************* IDF Context for following error/warning message:
   ************* Note -- lines truncated at 300 characters, if necessary...
   *************  686327 EnergyManagementSystem:Program,
   ************* indicated Name=DeliveredHeatingCoolingProgram_15
   ************* Only last 10 lines before error line shown.....
   *************  686346       Set f_supp = (E_supp + E_supp_fb) / (x + E_supp + E_supp_fb),
   *************  686347    Else,
   *************  686348       Set f_supp = 0,
   *************  686349    EndIf,
   *************  686350    Set EMSDeliveredHeating_15 = EMSDeliveredHeatingInclDucts_15-(EMSHeatingDuctLosses_15*(1-f_supp)),
   *************  686351    Set EMSDeliveredHeatingSupp_15 = EMSDeliveredHeatingSupp_15-(EMSHeatingDuctLosses_15*f_supp),
   *************  686352    Set EMSDeliveredHeatingWithSupp_15 = EMSDeliveredHeating_15 + EMSDeliveredHeatingSupp_15,
   *************  686353    Set EMSDeliveredCoolingSens_15 = EMSDeliveredCoolingSensInclDucts_15 - EMSCoolingDuctLossesSens_15,
   *************  686354    Set DehumRemovedWater = 0,
   *************  686355    Set EMSDeliveredCoolingLatentHVAC_15 = (CoilLatentCooling_15 + LC_fb) - EMSCoolingDuctLossesLatent_15,
   ** Warning ** IP: IDF line~686355 Alpha Argument length exceeds maximum, will be truncated=   Set EMSDeliveredCoolingLatentHVAC_15 = (CoilLatentCooling_15 + LC_fb) - EMSCoolingDuctLossesLatent_1
   **   ~~~   ** Will be processed as Alpha=SET EMSDELIVEREDCOOLINGLATENTHVAC_15 = (COILLATENTCOOLING_15 + LC_FB) - EMSCOOLINGDUCTLOSSESLATENT_15
   ************* IDF Context for following error/warning message:
   ************* Note -- lines truncated at 300 characters, if necessary...
   *************  686525 EnergyManagementSystem:Program,
   ************* indicated Name=DeliveredHeatingCoolingProgram_16
   ************* Only last 10 lines before error line shown.....
   *************  686544       Set f_supp = (E_supp + E_supp_fb) / (x + E_supp + E_supp_fb),
   *************  686545    Else,
   *************  686546       Set f_supp = 0,
   *************  686547    EndIf,
   *************  686548    Set EMSDeliveredHeating_16 = EMSDeliveredHeatingInclDucts_16-(EMSHeatingDuctLosses_16*(1-f_supp)),
   *************  686549    Set EMSDeliveredHeatingSupp_16 = EMSDeliveredHeatingSupp_16-(EMSHeatingDuctLosses_16*f_supp),
   *************  686550    Set EMSDeliveredHeatingWithSupp_16 = EMSDeliveredHeating_16 + EMSDeliveredHeatingSupp_16,
   *************  686551    Set EMSDeliveredCoolingSens_16 = EMSDeliveredCoolingSensInclDucts_16 - EMSCoolingDuctLossesSens_16,
   *************  686552    Set DehumRemovedWater = 0,
   *************  686553    Set EMSDeliveredCoolingLatentHVAC_16 = (CoilLatentCooling_16 + LC_fb) - EMSCoolingDuctLossesLatent_16,
   ** Warning ** IP: IDF line~686553 Alpha Argument length exceeds maximum, will be truncated=   Set EMSDeliveredCoolingLatentHVAC_16 = (CoilLatentCooling_16 + LC_fb) - EMSCoolingDuctLossesLatent_1
   **   ~~~   ** Will be processed as Alpha=SET EMSDELIVEREDCOOLINGLATENTHVAC_16 = (COILLATENTCOOLING_16 + LC_FB) - EMSCOOLINGDUCTLOSSESLATENT_16
   ************* IDF Context for following error/warning message:
   ************* Note -- lines truncated at 300 characters, if necessary...
   *************  686723 EnergyManagementSystem:Program,
   ************* indicated Name=DeliveredHeatingCoolingProgram_17
   ************* Only last 10 lines before error line shown.....
   *************  686742       Set f_supp = (E_supp + E_supp_fb) / (x + E_supp + E_supp_fb),
   *************  686743    Else,
   *************  686744       Set f_supp = 0,
   *************  686745    EndIf,
   *************  686746    Set EMSDeliveredHeating_17 = EMSDeliveredHeatingInclDucts_17-(EMSHeatingDuctLosses_17*(1-f_supp)),
   *************  686747    Set EMSDeliveredHeatingSupp_17 = EMSDeliveredHeatingSupp_17-(EMSHeatingDuctLosses_17*f_supp),
   *************  686748    Set EMSDeliveredHeatingWithSupp_17 = EMSDeliveredHeating_17 + EMSDeliveredHeatingSupp_17,
   *************  686749    Set EMSDeliveredCoolingSens_17 = EMSDeliveredCoolingSensInclDucts_17 - EMSCoolingDuctLossesSens_17,
   *************  686750    Set DehumRemovedWater = 0,
   *************  686751    Set EMSDeliveredCoolingLatentHVAC_17 = (CoilLatentCooling_17 + LC_fb) - EMSCoolingDuctLossesLatent_17,
   ** Warning ** IP: IDF line~686751 Alpha Argument length exceeds maximum, will be truncated=   Set EMSDeliveredCoolingLatentHVAC_17 = (CoilLatentCooling_17 + LC_fb) - EMSCoolingDuctLossesLatent_1
   **   ~~~   ** Will be processed as Alpha=SET EMSDELIVEREDCOOLINGLATENTHVAC_17 = (COILLATENTCOOLING_17 + LC_FB) - EMSCOOLINGDUCTLOSSESLATENT_17
   ************* IDF Context for following error/warning message:
   ************* Note -- lines truncated at 300 characters, if necessary...
   *************  686921 EnergyManagementSystem:Program,
   ************* indicated Name=DeliveredHeatingCoolingProgram_18
   ************* Only last 10 lines before error line shown.....
   *************  686940       Set f_supp = (E_supp + E_supp_fb) / (x + E_supp + E_supp_fb),
   *************  686941    Else,
   *************  686942       Set f_supp = 0,
   *************  686943    EndIf,
   *************  686944    Set EMSDeliveredHeating_18 = EMSDeliveredHeatingInclDucts_18-(EMSHeatingDuctLosses_18*(1-f_supp)),
   *************  686945    Set EMSDeliveredHeatingSupp_18 = EMSDeliveredHeatingSupp_18-(EMSHeatingDuctLosses_18*f_supp),
   *************  686946    Set EMSDeliveredHeatingWithSupp_18 = EMSDeliveredHeating_18 + EMSDeliveredHeatingSupp_18,
   *************  686947    Set EMSDeliveredCoolingSens_18 = EMSDeliveredCoolingSensInclDucts_18 - EMSCoolingDuctLossesSens_18,
   *************  686948    Set DehumRemovedWater = 0,
   *************  686949    Set EMSDeliveredCoolingLatentHVAC_18 = (CoilLatentCooling_18 + LC_fb) - EMSCoolingDuctLossesLatent_18,
   ** Warning ** IP: IDF line~686949 Alpha Argument length exceeds maximum, will be truncated=   Set EMSDeliveredCoolingLatentHVAC_18 = (CoilLatentCooling_18 + LC_fb) - EMSCoolingDuctLossesLatent_1
   **   ~~~   ** Will be processed as Alpha=SET EMSDELIVEREDCOOLINGLATENTHVAC_18 = (COILLATENTCOOLING_18 + LC_FB) - EMSCOOLINGDUCTLOSSESLATENT_18
   ************* IDF Context for following error/warning message:
   ************* Note -- lines truncated at 300 characters, if necessary...
   *************  687119 EnergyManagementSystem:Program,
   ************* indicated Name=DeliveredHeatingCoolingProgram_19
   ************* Only last 10 lines before error line shown.....
   *************  687138       Set f_supp = (E_supp + E_supp_fb) / (x + E_supp + E_supp_fb),
   *************  687139    Else,
   *************  687140       Set f_supp = 0,
   *************  687141    EndIf,
   *************  687142    Set EMSDeliveredHeating_19 = EMSDeliveredHeatingInclDucts_19-(EMSHeatingDuctLosses_19*(1-f_supp)),
   *************  687143    Set EMSDeliveredHeatingSupp_19 = EMSDeliveredHeatingSupp_19-(EMSHeatingDuctLosses_19*f_supp),
   *************  687144    Set EMSDeliveredHeatingWithSupp_19 = EMSDeliveredHeating_19 + EMSDeliveredHeatingSupp_19,
   *************  687145    Set EMSDeliveredCoolingSens_19 = EMSDeliveredCoolingSensInclDucts_19 - EMSCoolingDuctLossesSens_19,
   *************  687146    Set DehumRemovedWater = 0,
   *************  687147    Set EMSDeliveredCoolingLatentHVAC_19 = (CoilLatentCooling_19 + LC_fb) - EMSCoolingDuctLossesLatent_19,
   ** Warning ** IP: IDF line~687147 Alpha Argument length exceeds maximum, will be truncated=   Set EMSDeliveredCoolingLatentHVAC_19 = (CoilLatentCooling_19 + LC_fb) - EMSCoolingDuctLossesLatent_1
   **   ~~~   ** Will be processed as Alpha=SET EMSDELIVEREDCOOLINGLATENTHVAC_19 = (COILLATENTCOOLING_19 + LC_FB) - EMSCOOLINGDUCTLOSSESLATENT_19
   ************* IDF Context for following error/warning message:
   ************* Note -- lines truncated at 300 characters, if necessary...
   *************  687317 EnergyManagementSystem:Program,
   ************* indicated Name=DeliveredHeatingCoolingProgram_20
   ************* Only last 10 lines before error line shown.....
   *************  687336       Set f_supp = (E_supp + E_supp_fb) / (x + E_supp + E_supp_fb),
   *************  687337    Else,
   *************  687338       Set f_supp = 0,
   *************  687339    EndIf,
   *************  687340    Set EMSDeliveredHeating_20 = EMSDeliveredHeatingInclDucts_20-(EMSHeatingDuctLosses_20*(1-f_supp)),
   *************  687341    Set EMSDeliveredHeatingSupp_20 = EMSDeliveredHeatingSupp_20-(EMSHeatingDuctLosses_20*f_supp),
   *************  687342    Set EMSDeliveredHeatingWithSupp_20 = EMSDeliveredHeating_20 + EMSDeliveredHeatingSupp_20,
   *************  687343    Set EMSDeliveredCoolingSens_20 = EMSDeliveredCoolingSensInclDucts_20 - EMSCoolingDuctLossesSens_20,
   *************  687344    Set DehumRemovedWater = 0,
   *************  687345    Set EMSDeliveredCoolingLatentHVAC_20 = (CoilLatentCooling_20 + LC_fb) - EMSCoolingDuctLossesLatent_20,
   ** Warning ** IP: IDF line~687345 Alpha Argument length exceeds maximum, will be truncated=   Set EMSDeliveredCoolingLatentHVAC_20 = (CoilLatentCooling_20 + LC_fb) - EMSCoolingDuctLossesLatent_2
   **   ~~~   ** Will be processed as Alpha=SET EMSDELIVEREDCOOLINGLATENTHVAC_20 = (COILLATENTCOOLING_20 + LC_FB) - EMSCOOLINGDUCTLOSSESLATENT_20
   ************* IDF Context for following error/warning message:
   ************* Note -- lines truncated at 300 characters, if necessary...
   *************  687515 EnergyManagementSystem:Program,
   ************* indicated Name=DeliveredHeatingCoolingProgram_21
   ************* Only last 10 lines before error line shown.....
   *************  687534       Set f_supp = (E_supp + E_supp_fb) / (x + E_supp + E_supp_fb),
   *************  687535    Else,
   *************  687536       Set f_supp = 0,
   *************  687537    EndIf,
   *************  687538    Set EMSDeliveredHeating_21 = EMSDeliveredHeatingInclDucts_21-(EMSHeatingDuctLosses_21*(1-f_supp)),
   *************  687539    Set EMSDeliveredHeatingSupp_21 = EMSDeliveredHeatingSupp_21-(EMSHeatingDuctLosses_21*f_supp),
   *************  687540    Set EMSDeliveredHeatingWithSupp_21 = EMSDeliveredHeating_21 + EMSDeliveredHeatingSupp_21,
   *************  687541    Set EMSDeliveredCoolingSens_21 = EMSDeliveredCoolingSensInclDucts_21 - EMSCoolingDuctLossesSens_21,
   *************  687542    Set DehumRemovedWater = 0,
   *************  687543    Set EMSDeliveredCoolingLatentHVAC_21 = (CoilLatentCooling_21 + LC_fb) - EMSCoolingDuctLossesLatent_21,
   ** Warning ** IP: IDF line~687543 Alpha Argument length exceeds maximum, will be truncated=   Set EMSDeliveredCoolingLatentHVAC_21 = (CoilLatentCooling_21 + LC_fb) - EMSCoolingDuctLossesLatent_2
   **   ~~~   ** Will be processed as Alpha=SET EMSDELIVEREDCOOLINGLATENTHVAC_21 = (COILLATENTCOOLING_21 + LC_FB) - EMSCOOLINGDUCTLOSSESLATENT_21
   ************* IDF Context for following error/warning message:
   ************* Note -- lines truncated at 300 characters, if necessary...
   *************  687713 EnergyManagementSystem:Program,
   ************* indicated Name=DeliveredHeatingCoolingProgram_22
   ************* Only last 10 lines before error line shown.....
   *************  687732       Set f_supp = (E_supp + E_supp_fb) / (x + E_supp + E_supp_fb),
   *************  687733    Else,
   *************  687734       Set f_supp = 0,
   *************  687735    EndIf,
   *************  687736    Set EMSDeliveredHeating_22 = EMSDeliveredHeatingInclDucts_22-(EMSHeatingDuctLosses_22*(1-f_supp)),
   *************  687737    Set EMSDeliveredHeatingSupp_22 = EMSDeliveredHeatingSupp_22-(EMSHeatingDuctLosses_22*f_supp),
   *************  687738    Set EMSDeliveredHeatingWithSupp_22 = EMSDeliveredHeating_22 + EMSDeliveredHeatingSupp_22,
   *************  687739    Set EMSDeliveredCoolingSens_22 = EMSDeliveredCoolingSensInclDucts_22 - EMSCoolingDuctLossesSens_22,
   *************  687740    Set DehumRemovedWater = 0,
   *************  687741    Set EMSDeliveredCoolingLatentHVAC_22 = (CoilLatentCooling_22 + LC_fb) - EMSCoolingDuctLossesLatent_22,
   ** Warning ** IP: IDF line~687741 Alpha Argument length exceeds maximum, will be truncated=   Set EMSDeliveredCoolingLatentHVAC_22 = (CoilLatentCooling_22 + LC_fb) - EMSCoolingDuctLossesLatent_2
   **   ~~~   ** Will be processed as Alpha=SET EMSDELIVEREDCOOLINGLATENTHVAC_22 = (COILLATENTCOOLING_22 + LC_FB) - EMSCOOLINGDUCTLOSSESLATENT_22
   ************* IDF Context for following error/warning message:
   ************* Note -- lines truncated at 300 characters, if necessary...
   *************  687911 EnergyManagementSystem:Program,
   ************* indicated Name=DeliveredHeatingCoolingProgram_23
   ************* Only last 10 lines before error line shown.....
   *************  687930       Set f_supp = (E_supp + E_supp_fb) / (x + E_supp + E_supp_fb),
   *************  687931    Else,
   *************  687932       Set f_supp = 0,
   *************  687933    EndIf,
   *************  687934    Set EMSDeliveredHeating_23 = EMSDeliveredHeatingInclDucts_23-(EMSHeatingDuctLosses_23*(1-f_supp)),
   *************  687935    Set EMSDeliveredHeatingSupp_23 = EMSDeliveredHeatingSupp_23-(EMSHeatingDuctLosses_23*f_supp),
   *************  687936    Set EMSDeliveredHeatingWithSupp_23 = EMSDeliveredHeating_23 + EMSDeliveredHeatingSupp_23,
   *************  687937    Set EMSDeliveredCoolingSens_23 = EMSDeliveredCoolingSensInclDucts_23 - EMSCoolingDuctLossesSens_23,
   *************  687938    Set DehumRemovedWater = 0,
   *************  687939    Set EMSDeliveredCoolingLatentHVAC_23 = (CoilLatentCooling_23 + LC_fb) - EMSCoolingDuctLossesLatent_23,
   ** Warning ** IP: IDF line~687939 Alpha Argument length exceeds maximum, will be truncated=   Set EMSDeliveredCoolingLatentHVAC_23 = (CoilLatentCooling_23 + LC_fb) - EMSCoolingDuctLossesLatent_2
   **   ~~~   ** Will be processed as Alpha=SET EMSDELIVEREDCOOLINGLATENTHVAC_23 = (COILLATENTCOOLING_23 + LC_FB) - EMSCOOLINGDUCTLOSSESLATENT_23
   ************* IDF Context for following error/warning message:
   ************* Note -- lines truncated at 300 characters, if necessary...
   *************  688109 EnergyManagementSystem:Program,
   ************* indicated Name=DeliveredHeatingCoolingProgram_24
   ************* Only last 10 lines before error line shown.....
   *************  688128       Set f_supp = (E_supp + E_supp_fb) / (x + E_supp + E_supp_fb),
   *************  688129    Else,
   *************  688130       Set f_supp = 0,
   *************  688131    EndIf,
   *************  688132    Set EMSDeliveredHeating_24 = EMSDeliveredHeatingInclDucts_24-(EMSHeatingDuctLosses_24*(1-f_supp)),
   *************  688133    Set EMSDeliveredHeatingSupp_24 = EMSDeliveredHeatingSupp_24-(EMSHeatingDuctLosses_24*f_supp),
   *************  688134    Set EMSDeliveredHeatingWithSupp_24 = EMSDeliveredHeating_24 + EMSDeliveredHeatingSupp_24,
   *************  688135    Set EMSDeliveredCoolingSens_24 = EMSDeliveredCoolingSensInclDucts_24 - EMSCoolingDuctLossesSens_24,
   *************  688136    Set DehumRemovedWater = 0,
   *************  688137    Set EMSDeliveredCoolingLatentHVAC_24 = (CoilLatentCooling_24 + LC_fb) - EMSCoolingDuctLossesLatent_24,
   ** Warning ** IP: IDF line~688137 Alpha Argument length exceeds maximum, will be truncated=   Set EMSDeliveredCoolingLatentHVAC_24 = (CoilLatentCooling_24 + LC_fb) - EMSCoolingDuctLossesLatent_2
   **   ~~~   ** Will be processed as Alpha=SET EMSDELIVEREDCOOLINGLATENTHVAC_24 = (COILLATENTCOOLING_24 + LC_FB) - EMSCOOLINGDUCTLOSSESLATENT_24
   ************* IDF Context for following error/warning message:
   ************* Note -- lines truncated at 300 characters, if necessary...
   *************  688307 EnergyManagementSystem:Program,
   ************* indicated Name=DeliveredHeatingCoolingProgram_25
   ************* Only last 10 lines before error line shown.....
   *************  688326       Set f_supp = (E_supp + E_supp_fb) / (x + E_supp + E_supp_fb),
   *************  688327    Else,
   *************  688328       Set f_supp = 0,
   *************  688329    EndIf,
   *************  688330    Set EMSDeliveredHeating_25 = EMSDeliveredHeatingInclDucts_25-(EMSHeatingDuctLosses_25*(1-f_supp)),
   *************  688331    Set EMSDeliveredHeatingSupp_25 = EMSDeliveredHeatingSupp_25-(EMSHeatingDuctLosses_25*f_supp),
   *************  688332    Set EMSDeliveredHeatingWithSupp_25 = EMSDeliveredHeating_25 + EMSDeliveredHeatingSupp_25,
   *************  688333    Set EMSDeliveredCoolingSens_25 = EMSDeliveredCoolingSensInclDucts_25 - EMSCoolingDuctLossesSens_25,
   *************  688334    Set DehumRemovedWater = 0,
   *************  688335    Set EMSDeliveredCoolingLatentHVAC_25 = (CoilLatentCooling_25 + LC_fb) - EMSCoolingDuctLossesLatent_25,
   ** Warning ** IP: IDF line~688335 Alpha Argument length exceeds maximum, will be truncated=   Set EMSDeliveredCoolingLatentHVAC_25 = (CoilLatentCooling_25 + LC_fb) - EMSCoolingDuctLossesLatent_2
   **   ~~~   ** Will be processed as Alpha=SET EMSDELIVEREDCOOLINGLATENTHVAC_25 = (COILLATENTCOOLING_25 + LC_FB) - EMSCOOLINGDUCTLOSSESLATENT_25
   ************* IDF Context for following error/warning message:
   ************* Note -- lines truncated at 300 characters, if necessary...
   *************  688505 EnergyManagementSystem:Program,
   ************* indicated Name=DeliveredHeatingCoolingProgram_26
   ************* Only last 10 lines before error line shown.....
   *************  688524       Set f_supp = (E_supp + E_supp_fb) / (x + E_supp + E_supp_fb),
   *************  688525    Else,
   *************  688526       Set f_supp = 0,
   *************  688527    EndIf,
   *************  688528    Set EMSDeliveredHeating_26 = EMSDeliveredHeatingInclDucts_26-(EMSHeatingDuctLosses_26*(1-f_supp)),
   *************  688529    Set EMSDeliveredHeatingSupp_26 = EMSDeliveredHeatingSupp_26-(EMSHeatingDuctLosses_26*f_supp),
   *************  688530    Set EMSDeliveredHeatingWithSupp_26 = EMSDeliveredHeating_26 + EMSDeliveredHeatingSupp_26,
   *************  688531    Set EMSDeliveredCoolingSens_26 = EMSDeliveredCoolingSensInclDucts_26 - EMSCoolingDuctLossesSens_26,
   *************  688532    Set DehumRemovedWater = 0,
   *************  688533    Set EMSDeliveredCoolingLatentHVAC_26 = (CoilLatentCooling_26 + LC_fb) - EMSCoolingDuctLossesLatent_26,
   ** Warning ** IP: IDF line~688533 Alpha Argument length exceeds maximum, will be truncated=   Set EMSDeliveredCoolingLatentHVAC_26 = (CoilLatentCooling_26 + LC_fb) - EMSCoolingDuctLossesLatent_2
   **   ~~~   ** Will be processed as Alpha=SET EMSDELIVEREDCOOLINGLATENTHVAC_26 = (COILLATENTCOOLING_26 + LC_FB) - EMSCOOLINGDUCTLOSSESLATENT_26
   ************* IDF Context for following error/warning message:
   ************* Note -- lines truncated at 300 characters, if necessary...
   *************  688703 EnergyManagementSystem:Program,
   ************* indicated Name=DeliveredHeatingCoolingProgram_27
   ************* Only last 10 lines before error line shown.....
   *************  688722       Set f_supp = (E_supp + E_supp_fb) / (x + E_supp + E_supp_fb),
   *************  688723    Else,
   *************  688724       Set f_supp = 0,
   *************  688725    EndIf,
   *************  688726    Set EMSDeliveredHeating_27 = EMSDeliveredHeatingInclDucts_27-(EMSHeatingDuctLosses_27*(1-f_supp)),
   *************  688727    Set EMSDeliveredHeatingSupp_27 = EMSDeliveredHeatingSupp_27-(EMSHeatingDuctLosses_27*f_supp),
   *************  688728    Set EMSDeliveredHeatingWithSupp_27 = EMSDeliveredHeating_27 + EMSDeliveredHeatingSupp_27,
   *************  688729    Set EMSDeliveredCoolingSens_27 = EMSDeliveredCoolingSensInclDucts_27 - EMSCoolingDuctLossesSens_27,
   *************  688730    Set DehumRemovedWater = 0,
   *************  688731    Set EMSDeliveredCoolingLatentHVAC_27 = (CoilLatentCooling_27 + LC_fb) - EMSCoolingDuctLossesLatent_27,
   ** Warning ** IP: IDF line~688731 Alpha Argument length exceeds maximum, will be truncated=   Set EMSDeliveredCoolingLatentHVAC_27 = (CoilLatentCooling_27 + LC_fb) - EMSCoolingDuctLossesLatent_2
   **   ~~~   ** Will be processed as Alpha=SET EMSDELIVEREDCOOLINGLATENTHVAC_27 = (COILLATENTCOOLING_27 + LC_FB) - EMSCOOLINGDUCTLOSSESLATENT_27
   ************* IDF Context for following error/warning message:
   ************* Note -- lines truncated at 300 characters, if necessary...
   *************  688901 EnergyManagementSystem:Program,
   ************* indicated Name=DeliveredHeatingCoolingProgram_28
   ************* Only last 10 lines before error line shown.....
   *************  688920       Set f_supp = (E_supp + E_supp_fb) / (x + E_supp + E_supp_fb),
   *************  688921    Else,
   *************  688922       Set f_supp = 0,
   *************  688923    EndIf,
   *************  688924    Set EMSDeliveredHeating_28 = EMSDeliveredHeatingInclDucts_28-(EMSHeatingDuctLosses_28*(1-f_supp)),
   *************  688925    Set EMSDeliveredHeatingSupp_28 = EMSDeliveredHeatingSupp_28-(EMSHeatingDuctLosses_28*f_supp),
   *************  688926    Set EMSDeliveredHeatingWithSupp_28 = EMSDeliveredHeating_28 + EMSDeliveredHeatingSupp_28,
   *************  688927    Set EMSDeliveredCoolingSens_28 = EMSDeliveredCoolingSensInclDucts_28 - EMSCoolingDuctLossesSens_28,
   *************  688928    Set DehumRemovedWater = 0,
   *************  688929    Set EMSDeliveredCoolingLatentHVAC_28 = (CoilLatentCooling_28 + LC_fb) - EMSCoolingDuctLossesLatent_28,
   ** Warning ** IP: IDF line~688929 Alpha Argument length exceeds maximum, will be truncated=   Set EMSDeliveredCoolingLatentHVAC_28 = (CoilLatentCooling_28 + LC_fb) - EMSCoolingDuctLossesLatent_2
   **   ~~~   ** Will be processed as Alpha=SET EMSDELIVEREDCOOLINGLATENTHVAC_28 = (COILLATENTCOOLING_28 + LC_FB) - EMSCOOLINGDUCTLOSSESLATENT_28
   ************* IDF Context for following error/warning message:
   ************* Note -- lines truncated at 300 characters, if necessary...
   *************  689099 EnergyManagementSystem:Program,
   ************* indicated Name=DeliveredHeatingCoolingProgram_29
   ************* Only last 10 lines before error line shown.....
   *************  689118       Set f_supp = (E_supp + E_supp_fb) / (x + E_supp + E_supp_fb),
   *************  689119    Else,
   *************  689120       Set f_supp = 0,
   *************  689121    EndIf,
   *************  689122    Set EMSDeliveredHeating_29 = EMSDeliveredHeatingInclDucts_29-(EMSHeatingDuctLosses_29*(1-f_supp)),
   *************  689123    Set EMSDeliveredHeatingSupp_29 = EMSDeliveredHeatingSupp_29-(EMSHeatingDuctLosses_29*f_supp),
   *************  689124    Set EMSDeliveredHeatingWithSupp_29 = EMSDeliveredHeating_29 + EMSDeliveredHeatingSupp_29,
   *************  689125    Set EMSDeliveredCoolingSens_29 = EMSDeliveredCoolingSensInclDucts_29 - EMSCoolingDuctLossesSens_29,
   *************  689126    Set DehumRemovedWater = 0,
   *************  689127    Set EMSDeliveredCoolingLatentHVAC_29 = (CoilLatentCooling_29 + LC_fb) - EMSCoolingDuctLossesLatent_29,
   ** Warning ** IP: IDF line~689127 Alpha Argument length exceeds maximum, will be truncated=   Set EMSDeliveredCoolingLatentHVAC_29 = (CoilLatentCooling_29 + LC_fb) - EMSCoolingDuctLossesLatent_2
   **   ~~~   ** Will be processed as Alpha=SET EMSDELIVEREDCOOLINGLATENTHVAC_29 = (COILLATENTCOOLING_29 + LC_FB) - EMSCOOLINGDUCTLOSSESLATENT_29
   ************* IDF Context for following error/warning message:
   ************* Note -- lines truncated at 300 characters, if necessary...
   *************  689297 EnergyManagementSystem:Program,
   ************* indicated Name=DeliveredHeatingCoolingProgram_30
   ************* Only last 10 lines before error line shown.....
   *************  689316       Set f_supp = (E_supp + E_supp_fb) / (x + E_supp + E_supp_fb),
   *************  689317    Else,
   *************  689318       Set f_supp = 0,
   *************  689319    EndIf,
   *************  689320    Set EMSDeliveredHeating_30 = EMSDeliveredHeatingInclDucts_30-(EMSHeatingDuctLosses_30*(1-f_supp)),
   *************  689321    Set EMSDeliveredHeatingSupp_30 = EMSDeliveredHeatingSupp_30-(EMSHeatingDuctLosses_30*f_supp),
   *************  689322    Set EMSDeliveredHeatingWithSupp_30 = EMSDeliveredHeating_30 + EMSDeliveredHeatingSupp_30,
   *************  689323    Set EMSDeliveredCoolingSens_30 = EMSDeliveredCoolingSensInclDucts_30 - EMSCoolingDuctLossesSens_30,
   *************  689324    Set DehumRemovedWater = 0,
   *************  689325    Set EMSDeliveredCoolingLatentHVAC_30 = (CoilLatentCooling_30 + LC_fb) - EMSCoolingDuctLossesLatent_30,
   ** Warning ** IP: IDF line~689325 Alpha Argument length exceeds maximum, will be truncated=   Set EMSDeliveredCoolingLatentHVAC_30 = (CoilLatentCooling_30 + LC_fb) - EMSCoolingDuctLossesLatent_3
   **   ~~~   ** Will be processed as Alpha=SET EMSDELIVEREDCOOLINGLATENTHVAC_30 = (COILLATENTCOOLING_30 + LC_FB) - EMSCOOLINGDUCTLOSSESLATENT_30
   ************* IDF Context for following error/warning message:
   ************* Note -- lines truncated at 300 characters, if necessary...
   *************  689495 EnergyManagementSystem:Program,
   ************* indicated Name=DeliveredHeatingCoolingProgram_31
   ************* Only last 10 lines before error line shown.....
   *************  689514       Set f_supp = (E_supp + E_supp_fb) / (x + E_supp + E_supp_fb),
   *************  689515    Else,
   *************  689516       Set f_supp = 0,
   *************  689517    EndIf,
   *************  689518    Set EMSDeliveredHeating_31 = EMSDeliveredHeatingInclDucts_31-(EMSHeatingDuctLosses_31*(1-f_supp)),
   *************  689519    Set EMSDeliveredHeatingSupp_31 = EMSDeliveredHeatingSupp_31-(EMSHeatingDuctLosses_31*f_supp),
   *************  689520    Set EMSDeliveredHeatingWithSupp_31 = EMSDeliveredHeating_31 + EMSDeliveredHeatingSupp_31,
   *************  689521    Set EMSDeliveredCoolingSens_31 = EMSDeliveredCoolingSensInclDucts_31 - EMSCoolingDuctLossesSens_31,
   *************  689522    Set DehumRemovedWater = 0,
   *************  689523    Set EMSDeliveredCoolingLatentHVAC_31 = (CoilLatentCooling_31 + LC_fb) - EMSCoolingDuctLossesLatent_31,
   ** Warning ** IP: IDF line~689523 Alpha Argument length exceeds maximum, will be truncated=   Set EMSDeliveredCoolingLatentHVAC_31 = (CoilLatentCooling_31 + LC_fb) - EMSCoolingDuctLossesLatent_3
   **   ~~~   ** Will be processed as Alpha=SET EMSDELIVEREDCOOLINGLATENTHVAC_31 = (COILLATENTCOOLING_31 + LC_FB) - EMSCOOLINGDUCTLOSSESLATENT_31
   ************* IDF Context for following error/warning message:
   ************* Note -- lines truncated at 300 characters, if necessary...
   *************  689693 EnergyManagementSystem:Program,
   ************* indicated Name=DeliveredHeatingCoolingProgram_32
   ************* Only last 10 lines before error line shown.....
   *************  689712       Set f_supp = (E_supp + E_supp_fb) / (x + E_supp + E_supp_fb),
   *************  689713    Else,
   *************  689714       Set f_supp = 0,
   *************  689715    EndIf,
   *************  689716    Set EMSDeliveredHeating_32 = EMSDeliveredHeatingInclDucts_32-(EMSHeatingDuctLosses_32*(1-f_supp)),
   *************  689717    Set EMSDeliveredHeatingSupp_32 = EMSDeliveredHeatingSupp_32-(EMSHeatingDuctLosses_32*f_supp),
   *************  689718    Set EMSDeliveredHeatingWithSupp_32 = EMSDeliveredHeating_32 + EMSDeliveredHeatingSupp_32,
   *************  689719    Set EMSDeliveredCoolingSens_32 = EMSDeliveredCoolingSensInclDucts_32 - EMSCoolingDuctLossesSens_32,
   *************  689720    Set DehumRemovedWater = 0,
   *************  689721    Set EMSDeliveredCoolingLatentHVAC_32 = (CoilLatentCooling_32 + LC_fb) - EMSCoolingDuctLossesLatent_32,
   ** Warning ** IP: IDF line~689721 Alpha Argument length exceeds maximum, will be truncated=   Set EMSDeliveredCoolingLatentHVAC_32 = (CoilLatentCooling_32 + LC_fb) - EMSCoolingDuctLossesLatent_3
   **   ~~~   ** Will be processed as Alpha=SET EMSDELIVEREDCOOLINGLATENTHVAC_32 = (COILLATENTCOOLING_32 + LC_FB) - EMSCOOLINGDUCTLOSSESLATENT_32
   ************* IDF Context for following error/warning message:
   ************* Note -- lines truncated at 300 characters, if necessary...
   *************  689891 EnergyManagementSystem:Program,
   ************* indicated Name=DeliveredHeatingCoolingProgram_33
   ************* Only last 10 lines before error line shown.....
   *************  689910       Set f_supp = (E_supp + E_supp_fb) / (x + E_supp + E_supp_fb),
   *************  689911    Else,
   *************  689912       Set f_supp = 0,
   *************  689913    EndIf,
   *************  689914    Set EMSDeliveredHeating_33 = EMSDeliveredHeatingInclDucts_33-(EMSHeatingDuctLosses_33*(1-f_supp)),
   *************  689915    Set EMSDeliveredHeatingSupp_33 = EMSDeliveredHeatingSupp_33-(EMSHeatingDuctLosses_33*f_supp),
   *************  689916    Set EMSDeliveredHeatingWithSupp_33 = EMSDeliveredHeating_33 + EMSDeliveredHeatingSupp_33,
   *************  689917    Set EMSDeliveredCoolingSens_33 = EMSDeliveredCoolingSensInclDucts_33 - EMSCoolingDuctLossesSens_33,
   *************  689918    Set DehumRemovedWater = 0,
   *************  689919    Set EMSDeliveredCoolingLatentHVAC_33 = (CoilLatentCooling_33 + LC_fb) - EMSCoolingDuctLossesLatent_33,
   ** Warning ** IP: IDF line~689919 Alpha Argument length exceeds maximum, will be truncated=   Set EMSDeliveredCoolingLatentHVAC_33 = (CoilLatentCooling_33 + LC_fb) - EMSCoolingDuctLossesLatent_3
   **   ~~~   ** Will be processed as Alpha=SET EMSDELIVEREDCOOLINGLATENTHVAC_33 = (COILLATENTCOOLING_33 + LC_FB) - EMSCOOLINGDUCTLOSSESLATENT_33
   ************* IDF Context for following error/warning message:
   ************* Note -- lines truncated at 300 characters, if necessary...
   *************  690089 EnergyManagementSystem:Program,
   ************* indicated Name=DeliveredHeatingCoolingProgram_34
   ************* Only last 10 lines before error line shown.....
   *************  690108       Set f_supp = (E_supp + E_supp_fb) / (x + E_supp + E_supp_fb),
   *************  690109    Else,
   *************  690110       Set f_supp = 0,
   *************  690111    EndIf,
   *************  690112    Set EMSDeliveredHeating_34 = EMSDeliveredHeatingInclDucts_34-(EMSHeatingDuctLosses_34*(1-f_supp)),
   *************  690113    Set EMSDeliveredHeatingSupp_34 = EMSDeliveredHeatingSupp_34-(EMSHeatingDuctLosses_34*f_supp),
   *************  690114    Set EMSDeliveredHeatingWithSupp_34 = EMSDeliveredHeating_34 + EMSDeliveredHeatingSupp_34,
   *************  690115    Set EMSDeliveredCoolingSens_34 = EMSDeliveredCoolingSensInclDucts_34 - EMSCoolingDuctLossesSens_34,
   *************  690116    Set DehumRemovedWater = 0,
   *************  690117    Set EMSDeliveredCoolingLatentHVAC_34 = (CoilLatentCooling_34 + LC_fb) - EMSCoolingDuctLossesLatent_34,
   ** Warning ** IP: IDF line~690117 Alpha Argument length exceeds maximum, will be truncated=   Set EMSDeliveredCoolingLatentHVAC_34 = (CoilLatentCooling_34 + LC_fb) - EMSCoolingDuctLossesLatent_3
   **   ~~~   ** Will be processed as Alpha=SET EMSDELIVEREDCOOLINGLATENTHVAC_34 = (COILLATENTCOOLING_34 + LC_FB) - EMSCOOLINGDUCTLOSSESLATENT_34
   ************* IDF Context for following error/warning message:
   ************* Note -- lines truncated at 300 characters, if necessary...
   *************  690287 EnergyManagementSystem:Program,
   ************* indicated Name=DeliveredHeatingCoolingProgram_35
   ************* Only last 10 lines before error line shown.....
   *************  690306       Set f_supp = (E_supp + E_supp_fb) / (x + E_supp + E_supp_fb),
   *************  690307    Else,
   *************  690308       Set f_supp = 0,
   *************  690309    EndIf,
   *************  690310    Set EMSDeliveredHeating_35 = EMSDeliveredHeatingInclDucts_35-(EMSHeatingDuctLosses_35*(1-f_supp)),
   *************  690311    Set EMSDeliveredHeatingSupp_35 = EMSDeliveredHeatingSupp_35-(EMSHeatingDuctLosses_35*f_supp),
   *************  690312    Set EMSDeliveredHeatingWithSupp_35 = EMSDeliveredHeating_35 + EMSDeliveredHeatingSupp_35,
   *************  690313    Set EMSDeliveredCoolingSens_35 = EMSDeliveredCoolingSensInclDucts_35 - EMSCoolingDuctLossesSens_35,
   *************  690314    Set DehumRemovedWater = 0,
   *************  690315    Set EMSDeliveredCoolingLatentHVAC_35 = (CoilLatentCooling_35 + LC_fb) - EMSCoolingDuctLossesLatent_35,
   ** Warning ** IP: IDF line~690315 Alpha Argument length exceeds maximum, will be truncated=   Set EMSDeliveredCoolingLatentHVAC_35 = (CoilLatentCooling_35 + LC_fb) - EMSCoolingDuctLossesLatent_3
   **   ~~~   ** Will be processed as Alpha=SET EMSDELIVEREDCOOLINGLATENTHVAC_35 = (COILLATENTCOOLING_35 + LC_FB) - EMSCOOLINGDUCTLOSSESLATENT_35
   ************* IDF Context for following error/warning message:
   ************* Note -- lines truncated at 300 characters, if necessary...
   *************  690485 EnergyManagementSystem:Program,
   ************* indicated Name=DeliveredHeatingCoolingProgram_36
   ************* Only last 10 lines before error line shown.....
   *************  690504       Set f_supp = (E_supp + E_supp_fb) / (x + E_supp + E_supp_fb),
   *************  690505    Else,
   *************  690506       Set f_supp = 0,
   *************  690507    EndIf,
   *************  690508    Set EMSDeliveredHeating_36 = EMSDeliveredHeatingInclDucts_36-(EMSHeatingDuctLosses_36*(1-f_supp)),
   *************  690509    Set EMSDeliveredHeatingSupp_36 = EMSDeliveredHeatingSupp_36-(EMSHeatingDuctLosses_36*f_supp),
   *************  690510    Set EMSDeliveredHeatingWithSupp_36 = EMSDeliveredHeating_36 + EMSDeliveredHeatingSupp_36,
   *************  690511    Set EMSDeliveredCoolingSens_36 = EMSDeliveredCoolingSensInclDucts_36 - EMSCoolingDuctLossesSens_36,
   *************  690512    Set DehumRemovedWater = 0,
   *************  690513    Set EMSDeliveredCoolingLatentHVAC_36 = (CoilLatentCooling_36 + LC_fb) - EMSCoolingDuctLossesLatent_36,
   ** Warning ** IP: IDF line~690513 Alpha Argument length exceeds maximum, will be truncated=   Set EMSDeliveredCoolingLatentHVAC_36 = (CoilLatentCooling_36 + LC_fb) - EMSCoolingDuctLossesLatent_3
   **   ~~~   ** Will be processed as Alpha=SET EMSDELIVEREDCOOLINGLATENTHVAC_36 = (COILLATENTCOOLING_36 + LC_FB) - EMSCOOLINGDUCTLOSSESLATENT_36
   ************* IDF Context for following error/warning message:
   ************* Note -- lines truncated at 300 characters, if necessary...
   *************  690683 EnergyManagementSystem:Program,
   ************* indicated Name=DeliveredHeatingCoolingProgram_37
   ************* Only last 10 lines before error line shown.....
   *************  690702       Set f_supp = (E_supp + E_supp_fb) / (x + E_supp + E_supp_fb),
   *************  690703    Else,
   *************  690704       Set f_supp = 0,
   *************  690705    EndIf,
   *************  690706    Set EMSDeliveredHeating_37 = EMSDeliveredHeatingInclDucts_37-(EMSHeatingDuctLosses_37*(1-f_supp)),
   *************  690707    Set EMSDeliveredHeatingSupp_37 = EMSDeliveredHeatingSupp_37-(EMSHeatingDuctLosses_37*f_supp),
   *************  690708    Set EMSDeliveredHeatingWithSupp_37 = EMSDeliveredHeating_37 + EMSDeliveredHeatingSupp_37,
   *************  690709    Set EMSDeliveredCoolingSens_37 = EMSDeliveredCoolingSensInclDucts_37 - EMSCoolingDuctLossesSens_37,
   *************  690710    Set DehumRemovedWater = 0,
   *************  690711    Set EMSDeliveredCoolingLatentHVAC_37 = (CoilLatentCooling_37 + LC_fb) - EMSCoolingDuctLossesLatent_37,
   ** Warning ** IP: IDF line~690711 Alpha Argument length exceeds maximum, will be truncated=   Set EMSDeliveredCoolingLatentHVAC_37 = (CoilLatentCooling_37 + LC_fb) - EMSCoolingDuctLossesLatent_3
   **   ~~~   ** Will be processed as Alpha=SET EMSDELIVEREDCOOLINGLATENTHVAC_37 = (COILLATENTCOOLING_37 + LC_FB) - EMSCOOLINGDUCTLOSSESLATENT_37
   ************* IDF Context for following error/warning message:
   ************* Note -- lines truncated at 300 characters, if necessary...
   *************  690881 EnergyManagementSystem:Program,
   ************* indicated Name=DeliveredHeatingCoolingProgram_38
   ************* Only last 10 lines before error line shown.....
   *************  690900       Set f_supp = (E_supp + E_supp_fb) / (x + E_supp + E_supp_fb),
   *************  690901    Else,
   *************  690902       Set f_supp = 0,
   *************  690903    EndIf,
   *************  690904    Set EMSDeliveredHeating_38 = EMSDeliveredHeatingInclDucts_38-(EMSHeatingDuctLosses_38*(1-f_supp)),
   *************  690905    Set EMSDeliveredHeatingSupp_38 = EMSDeliveredHeatingSupp_38-(EMSHeatingDuctLosses_38*f_supp),
   *************  690906    Set EMSDeliveredHeatingWithSupp_38 = EMSDeliveredHeating_38 + EMSDeliveredHeatingSupp_38,
   *************  690907    Set EMSDeliveredCoolingSens_38 = EMSDeliveredCoolingSensInclDucts_38 - EMSCoolingDuctLossesSens_38,
   *************  690908    Set DehumRemovedWater = 0,
   *************  690909    Set EMSDeliveredCoolingLatentHVAC_38 = (CoilLatentCooling_38 + LC_fb) - EMSCoolingDuctLossesLatent_38,
   ** Warning ** IP: IDF line~690909 Alpha Argument length exceeds maximum, will be truncated=   Set EMSDeliveredCoolingLatentHVAC_38 = (CoilLatentCooling_38 + LC_fb) - EMSCoolingDuctLossesLatent_3
   **   ~~~   ** Will be processed as Alpha=SET EMSDELIVEREDCOOLINGLATENTHVAC_38 = (COILLATENTCOOLING_38 + LC_FB) - EMSCOOLINGDUCTLOSSESLATENT_38
   ************* IDF Context for following error/warning message:
   ************* Note -- lines truncated at 300 characters, if necessary...
   *************  691079 EnergyManagementSystem:Program,
   ************* indicated Name=DeliveredHeatingCoolingProgram_39
   ************* Only last 10 lines before error line shown.....
   *************  691098       Set f_supp = (E_supp + E_supp_fb) / (x + E_supp + E_supp_fb),
   *************  691099    Else,
   *************  691100       Set f_supp = 0,
   *************  691101    EndIf,
   *************  691102    Set EMSDeliveredHeating_39 = EMSDeliveredHeatingInclDucts_39-(EMSHeatingDuctLosses_39*(1-f_supp)),
   *************  691103    Set EMSDeliveredHeatingSupp_39 = EMSDeliveredHeatingSupp_39-(EMSHeatingDuctLosses_39*f_supp),
   *************  691104    Set EMSDeliveredHeatingWithSupp_39 = EMSDeliveredHeating_39 + EMSDeliveredHeatingSupp_39,
   *************  691105    Set EMSDeliveredCoolingSens_39 = EMSDeliveredCoolingSensInclDucts_39 - EMSCoolingDuctLossesSens_39,
   *************  691106    Set DehumRemovedWater = 0,
   *************  691107    Set EMSDeliveredCoolingLatentHVAC_39 = (CoilLatentCooling_39 + LC_fb) - EMSCoolingDuctLossesLatent_39,
   ** Warning ** IP: IDF line~691107 Alpha Argument length exceeds maximum, will be truncated=   Set EMSDeliveredCoolingLatentHVAC_39 = (CoilLatentCooling_39 + LC_fb) - EMSCoolingDuctLossesLatent_3
   **   ~~~   ** Will be processed as Alpha=SET EMSDELIVEREDCOOLINGLATENTHVAC_39 = (COILLATENTCOOLING_39 + LC_FB) - EMSCOOLINGDUCTLOSSESLATENT_39
   ************* IDF Context for following error/warning message:
   ************* Note -- lines truncated at 300 characters, if necessary...
   *************  691277 EnergyManagementSystem:Program,
   ************* indicated Name=DeliveredHeatingCoolingProgram_40
   ************* Only last 10 lines before error line shown.....
   *************  691296       Set f_supp = (E_supp + E_supp_fb) / (x + E_supp + E_supp_fb),
   *************  691297    Else,
   *************  691298       Set f_supp = 0,
   *************  691299    EndIf,
   *************  691300    Set EMSDeliveredHeating_40 = EMSDeliveredHeatingInclDucts_40-(EMSHeatingDuctLosses_40*(1-f_supp)),
   *************  691301    Set EMSDeliveredHeatingSupp_40 = EMSDeliveredHeatingSupp_40-(EMSHeatingDuctLosses_40*f_supp),
   *************  691302    Set EMSDeliveredHeatingWithSupp_40 = EMSDeliveredHeating_40 + EMSDeliveredHeatingSupp_40,
   *************  691303    Set EMSDeliveredCoolingSens_40 = EMSDeliveredCoolingSensInclDucts_40 - EMSCoolingDuctLossesSens_40,
   *************  691304    Set DehumRemovedWater = 0,
   *************  691305    Set EMSDeliveredCoolingLatentHVAC_40 = (CoilLatentCooling_40 + LC_fb) - EMSCoolingDuctLossesLatent_40,
   ** Warning ** IP: IDF line~691305 Alpha Argument length exceeds maximum, will be truncated=   Set EMSDeliveredCoolingLatentHVAC_40 = (CoilLatentCooling_40 + LC_fb) - EMSCoolingDuctLossesLatent_4
   **   ~~~   ** Will be processed as Alpha=SET EMSDELIVEREDCOOLINGLATENTHVAC_40 = (COILLATENTCOOLING_40 + LC_FB) - EMSCOOLINGDUCTLOSSESLATENT_40
   ** Warning ** IP: Note -- Some missing fields have been filled with defaults. See the audit output file for details.
   ** Warning ** Sizing:Parameters: note Timesteps in Averaging Window entered value=[1] is less than 1 hour (i.e., 4 timesteps).
   ** Warning ** ManageSizing: For a zone sizing run, there must be at least 1 Sizing:Zone input object. SimulationControl Zone Sizing option ignored.
   ************* Beginning Plant Sizing Calculations
   ** Warning ** Site:GroundTemperature:BuildingSurface: Some values fall outside the range of 15-25C.
   **   ~~~   ** These values may be inappropriate.  Please consult the Input Output Reference for more details.
   ** Warning ** ProcessScheduleInput: Schedule:File="CLOTHESWASHER_1" 34605 records had errors - these values are set to 0.
   **   ~~~   ** Use Output:Diagnostics,DisplayExtraWarnings; to see individual records in error.
   ** Warning ** ProcessScheduleInput: Schedule:File="DISHWASHER_1" 34640 records had errors - these values are set to 0.
   **   ~~~   ** Use Output:Diagnostics,DisplayExtraWarnings; to see individual records in error.
   ** Warning ** ProcessScheduleInput: Schedule:File="SHOWERS_1" 34474 records had errors - these values are set to 0.
   **   ~~~   ** Use Output:Diagnostics,DisplayExtraWarnings; to see individual records in error.
   ** Warning ** ProcessScheduleInput: Schedule:File="SINKS_1" 30311 records had errors - these values are set to 0.
   **   ~~~   ** Use Output:Diagnostics,DisplayExtraWarnings; to see individual records in error.
   ** Warning ** ProcessScheduleInput: Schedule:File="CLOTHESWASHER_2" 34621 records had errors - these values are set to 0.
   **   ~~~   ** Use Output:Diagnostics,DisplayExtraWarnings; to see individual records in error.
   ** Warning ** ProcessScheduleInput: Schedule:File="DISHWASHER_2" 34649 records had errors - these values are set to 0.
   **   ~~~   ** Use Output:Diagnostics,DisplayExtraWarnings; to see individual records in error.
   ** Warning ** ProcessScheduleInput: Schedule:File="SHOWERS_2" 34485 records had errors - these values are set to 0.
   **   ~~~   ** Use Output:Diagnostics,DisplayExtraWarnings; to see individual records in error.
   ** Warning ** ProcessScheduleInput: Schedule:File="SINKS_2" 30398 records had errors - these values are set to 0.
   **   ~~~   ** Use Output:Diagnostics,DisplayExtraWarnings; to see individual records in error.
   ** Warning ** ProcessScheduleInput: Schedule:File="CLOTHESWASHER_3" 34610 records had errors - these values are set to 0.
   **   ~~~   ** Use Output:Diagnostics,DisplayExtraWarnings; to see individual records in error.
   ** Warning ** ProcessScheduleInput: Schedule:File="DISHWASHER_3" 34620 records had errors - these values are set to 0.
   **   ~~~   ** Use Output:Diagnostics,DisplayExtraWarnings; to see individual records in error.
   ** Warning ** ProcessScheduleInput: Schedule:File="SHOWERS_3" 34467 records had errors - these values are set to 0.
   **   ~~~   ** Use Output:Diagnostics,DisplayExtraWarnings; to see individual records in error.
   ** Warning ** ProcessScheduleInput: Schedule:File="SINKS_3" 30373 records had errors - these values are set to 0.
   **   ~~~   ** Use Output:Diagnostics,DisplayExtraWarnings; to see individual records in error.
   ** Warning ** ProcessScheduleInput: Schedule:File="CLOTHESWASHER_4" 34622 records had errors - these values are set to 0.
   **   ~~~   ** Use Output:Diagnostics,DisplayExtraWarnings; to see individual records in error.
   ** Warning ** ProcessScheduleInput: Schedule:File="DISHWASHER_4" 34619 records had errors - these values are set to 0.
   **   ~~~   ** Use Output:Diagnostics,DisplayExtraWarnings; to see individual records in error.
   ** Warning ** ProcessScheduleInput: Schedule:File="SHOWERS_4" 34504 records had errors - these values are set to 0.
   **   ~~~   ** Use Output:Diagnostics,DisplayExtraWarnings; to see individual records in error.
   ** Warning ** ProcessScheduleInput: Schedule:File="SINKS_4" 30398 records had errors - these values are set to 0.
   **   ~~~   ** Use Output:Diagnostics,DisplayExtraWarnings; to see individual records in error.
   ** Warning ** ProcessScheduleInput: Schedule:File="CLOTHESWASHER_5" 34594 records had errors - these values are set to 0.
   **   ~~~   ** Use Output:Diagnostics,DisplayExtraWarnings; to see individual records in error.
   ** Warning ** ProcessScheduleInput: Schedule:File="DISHWASHER_5" 34622 records had errors - these values are set to 0.
   **   ~~~   ** Use Output:Diagnostics,DisplayExtraWarnings; to see individual records in error.
   ** Warning ** ProcessScheduleInput: Schedule:File="SHOWERS_5" 34472 records had errors - these values are set to 0.
   **   ~~~   ** Use Output:Diagnostics,DisplayExtraWarnings; to see individual records in error.
   ** Warning ** ProcessScheduleInput: Schedule:File="SINKS_5" 30339 records had errors - these values are set to 0.
   **   ~~~   ** Use Output:Diagnostics,DisplayExtraWarnings; to see individual records in error.
   ** Warning ** ProcessScheduleInput: Schedule:File="CLOTHESWASHER_6" 34581 records had errors - these values are set to 0.
   **   ~~~   ** Use Output:Diagnostics,DisplayExtraWarnings; to see individual records in error.
   ** Warning ** ProcessScheduleInput: Schedule:File="DISHWASHER_6" 34631 records had errors - these values are set to 0.
   **   ~~~   ** Use Output:Diagnostics,DisplayExtraWarnings; to see individual records in error.
   ** Warning ** ProcessScheduleInput: Schedule:File="SHOWERS_6" 34478 records had errors - these values are set to 0.
   **   ~~~   ** Use Output:Diagnostics,DisplayExtraWarnings; to see individual records in error.
   ** Warning ** ProcessScheduleInput: Schedule:File="SINKS_6" 30381 records had errors - these values are set to 0.
   **   ~~~   ** Use Output:Diagnostics,DisplayExtraWarnings; to see individual records in error.
   ** Warning ** ProcessScheduleInput: Schedule:File="CLOTHESWASHER_7" 34621 records had errors - these values are set to 0.
   **   ~~~   ** Use Output:Diagnostics,DisplayExtraWarnings; to see individual records in error.
   ** Warning ** ProcessScheduleInput: Schedule:File="DISHWASHER_7" 34632 records had errors - these values are set to 0.
   **   ~~~   ** Use Output:Diagnostics,DisplayExtraWarnings; to see individual records in error.
   ** Warning ** ProcessScheduleInput: Schedule:File="SHOWERS_7" 34497 records had errors - these values are set to 0.
   **   ~~~   ** Use Output:Diagnostics,DisplayExtraWarnings; to see individual records in error.
   ** Warning ** ProcessScheduleInput: Schedule:File="SINKS_7" 30368 records had errors - these values are set to 0.
   **   ~~~   ** Use Output:Diagnostics,DisplayExtraWarnings; to see individual records in error.
   ** Warning ** ProcessScheduleInput: Schedule:File="CLOTHESWASHER_8" 34621 records had errors - these values are set to 0.
   **   ~~~   ** Use Output:Diagnostics,DisplayExtraWarnings; to see individual records in error.
   ** Warning ** ProcessScheduleInput: Schedule:File="DISHWASHER_8" 34613 records had errors - these values are set to 0.
   **   ~~~   ** Use Output:Diagnostics,DisplayExtraWarnings; to see individual records in error.
   ** Warning ** ProcessScheduleInput: Schedule:File="SHOWERS_8" 34489 records had errors - these values are set to 0.
   **   ~~~   ** Use Output:Diagnostics,DisplayExtraWarnings; to see individual records in error.
   ** Warning ** ProcessScheduleInput: Schedule:File="SINKS_8" 30339 records had errors - these values are set to 0.
   **   ~~~   ** Use Output:Diagnostics,DisplayExtraWarnings; to see individual records in error.
   ** Warning ** ProcessScheduleInput: Schedule:File="CLOTHESWASHER_9" 34612 records had errors - these values are set to 0.
   **   ~~~   ** Use Output:Diagnostics,DisplayExtraWarnings; to see individual records in error.
   ** Warning ** ProcessScheduleInput: Schedule:File="DISHWASHER_9" 34648 records had errors - these values are set to 0.
   **   ~~~   ** Use Output:Diagnostics,DisplayExtraWarnings; to see individual records in error.
   ** Warning ** ProcessScheduleInput: Schedule:File="SHOWERS_9" 34462 records had errors - these values are set to 0.
   **   ~~~   ** Use Output:Diagnostics,DisplayExtraWarnings; to see individual records in error.
   ** Warning ** ProcessScheduleInput: Schedule:File="SINKS_9" 30351 records had errors - these values are set to 0.
   **   ~~~   ** Use Output:Diagnostics,DisplayExtraWarnings; to see individual records in error.
   ** Warning ** ProcessScheduleInput: Schedule:File="CLOTHESWASHER_10" 34582 records had errors - these values are set to 0.
   **   ~~~   ** Use Output:Diagnostics,DisplayExtraWarnings; to see individual records in error.
   ** Warning ** ProcessScheduleInput: Schedule:File="DISHWASHER_10" 34626 records had errors - these values are set to 0.
   **   ~~~   ** Use Output:Diagnostics,DisplayExtraWarnings; to see individual records in error.
   ** Warning ** ProcessScheduleInput: Schedule:File="SHOWERS_10" 34474 records had errors - these values are set to 0.
   **   ~~~   ** Use Output:Diagnostics,DisplayExtraWarnings; to see individual records in error.
   ** Warning ** ProcessScheduleInput: Schedule:File="SINKS_10" 30374 records had errors - these values are set to 0.
   **   ~~~   ** Use Output:Diagnostics,DisplayExtraWarnings; to see individual records in error.
   ** Warning ** ProcessScheduleInput: Schedule:File="CLOTHESWASHER_11" 34605 records had errors - these values are set to 0.
   **   ~~~   ** Use Output:Diagnostics,DisplayExtraWarnings; to see individual records in error.
   ** Warning ** ProcessScheduleInput: Schedule:File="DISHWASHER_11" 34640 records had errors - these values are set to 0.
   **   ~~~   ** Use Output:Diagnostics,DisplayExtraWarnings; to see individual records in error.
   ** Warning ** ProcessScheduleInput: Schedule:File="SHOWERS_11" 34474 records had errors - these values are set to 0.
   **   ~~~   ** Use Output:Diagnostics,DisplayExtraWarnings; to see individual records in error.
   ** Warning ** ProcessScheduleInput: Schedule:File="SINKS_11" 30311 records had errors - these values are set to 0.
   **   ~~~   ** Use Output:Diagnostics,DisplayExtraWarnings; to see individual records in error.
   ** Warning ** ProcessScheduleInput: Schedule:File="CLOTHESWASHER_12" 34621 records had errors - these values are set to 0.
   **   ~~~   ** Use Output:Diagnostics,DisplayExtraWarnings; to see individual records in error.
   ** Warning ** ProcessScheduleInput: Schedule:File="DISHWASHER_12" 34649 records had errors - these values are set to 0.
   **   ~~~   ** Use Output:Diagnostics,DisplayExtraWarnings; to see individual records in error.
   ** Warning ** ProcessScheduleInput: Schedule:File="SHOWERS_12" 34485 records had errors - these values are set to 0.
   **   ~~~   ** Use Output:Diagnostics,DisplayExtraWarnings; to see individual records in error.
   ** Warning ** ProcessScheduleInput: Schedule:File="SINKS_12" 30398 records had errors - these values are set to 0.
   **   ~~~   ** Use Output:Diagnostics,DisplayExtraWarnings; to see individual records in error.
   ** Warning ** ProcessScheduleInput: Schedule:File="CLOTHESWASHER_13" 34610 records had errors - these values are set to 0.
   **   ~~~   ** Use Output:Diagnostics,DisplayExtraWarnings; to see individual records in error.
   ** Warning ** ProcessScheduleInput: Schedule:File="DISHWASHER_13" 34620 records had errors - these values are set to 0.
   **   ~~~   ** Use Output:Diagnostics,DisplayExtraWarnings; to see individual records in error.
   ** Warning ** ProcessScheduleInput: Schedule:File="SHOWERS_13" 34467 records had errors - these values are set to 0.
   **   ~~~   ** Use Output:Diagnostics,DisplayExtraWarnings; to see individual records in error.
   ** Warning ** ProcessScheduleInput: Schedule:File="SINKS_13" 30373 records had errors - these values are set to 0.
   **   ~~~   ** Use Output:Diagnostics,DisplayExtraWarnings; to see individual records in error.
   ** Warning ** ProcessScheduleInput: Schedule:File="CLOTHESWASHER_14" 34622 records had errors - these values are set to 0.
   **   ~~~   ** Use Output:Diagnostics,DisplayExtraWarnings; to see individual records in error.
   ** Warning ** ProcessScheduleInput: Schedule:File="DISHWASHER_14" 34619 records had errors - these values are set to 0.
   **   ~~~   ** Use Output:Diagnostics,DisplayExtraWarnings; to see individual records in error.
   ** Warning ** ProcessScheduleInput: Schedule:File="SHOWERS_14" 34504 records had errors - these values are set to 0.
   **   ~~~   ** Use Output:Diagnostics,DisplayExtraWarnings; to see individual records in error.
   ** Warning ** ProcessScheduleInput: Schedule:File="SINKS_14" 30398 records had errors - these values are set to 0.
   **   ~~~   ** Use Output:Diagnostics,DisplayExtraWarnings; to see individual records in error.
   ** Warning ** ProcessScheduleInput: Schedule:File="CLOTHESWASHER_15" 34594 records had errors - these values are set to 0.
   **   ~~~   ** Use Output:Diagnostics,DisplayExtraWarnings; to see individual records in error.
   ** Warning ** ProcessScheduleInput: Schedule:File="DISHWASHER_15" 34622 records had errors - these values are set to 0.
   **   ~~~   ** Use Output:Diagnostics,DisplayExtraWarnings; to see individual records in error.
   ** Warning ** ProcessScheduleInput: Schedule:File="SHOWERS_15" 34472 records had errors - these values are set to 0.
   **   ~~~   ** Use Output:Diagnostics,DisplayExtraWarnings; to see individual records in error.
   ** Warning ** ProcessScheduleInput: Schedule:File="SINKS_15" 30339 records had errors - these values are set to 0.
   **   ~~~   ** Use Output:Diagnostics,DisplayExtraWarnings; to see individual records in error.
   ** Warning ** ProcessScheduleInput: Schedule:File="CLOTHESWASHER_16" 34581 records had errors - these values are set to 0.
   **   ~~~   ** Use Output:Diagnostics,DisplayExtraWarnings; to see individual records in error.
   ** Warning ** ProcessScheduleInput: Schedule:File="DISHWASHER_16" 34631 records had errors - these values are set to 0.
   **   ~~~   ** Use Output:Diagnostics,DisplayExtraWarnings; to see individual records in error.
   ** Warning ** ProcessScheduleInput: Schedule:File="SHOWERS_16" 34478 records had errors - these values are set to 0.
   **   ~~~   ** Use Output:Diagnostics,DisplayExtraWarnings; to see individual records in error.
   ** Warning ** ProcessScheduleInput: Schedule:File="SINKS_16" 30381 records had errors - these values are set to 0.
   **   ~~~   ** Use Output:Diagnostics,DisplayExtraWarnings; to see individual records in error.
   ** Warning ** ProcessScheduleInput: Schedule:File="CLOTHESWASHER_17" 34621 records had errors - these values are set to 0.
   **   ~~~   ** Use Output:Diagnostics,DisplayExtraWarnings; to see individual records in error.
   ** Warning ** ProcessScheduleInput: Schedule:File="DISHWASHER_17" 34632 records had errors - these values are set to 0.
   **   ~~~   ** Use Output:Diagnostics,DisplayExtraWarnings; to see individual records in error.
   ** Warning ** ProcessScheduleInput: Schedule:File="SHOWERS_17" 34497 records had errors - these values are set to 0.
   **   ~~~   ** Use Output:Diagnostics,DisplayExtraWarnings; to see individual records in error.
   ** Warning ** ProcessScheduleInput: Schedule:File="SINKS_17" 30368 records had errors - these values are set to 0.
   **   ~~~   ** Use Output:Diagnostics,DisplayExtraWarnings; to see individual records in error.
   ** Warning ** ProcessScheduleInput: Schedule:File="CLOTHESWASHER_18" 34621 records had errors - these values are set to 0.
   **   ~~~   ** Use Output:Diagnostics,DisplayExtraWarnings; to see individual records in error.
   ** Warning ** ProcessScheduleInput: Schedule:File="DISHWASHER_18" 34613 records had errors - these values are set to 0.
   **   ~~~   ** Use Output:Diagnostics,DisplayExtraWarnings; to see individual records in error.
   ** Warning ** ProcessScheduleInput: Schedule:File="SHOWERS_18" 34489 records had errors - these values are set to 0.
   **   ~~~   ** Use Output:Diagnostics,DisplayExtraWarnings; to see individual records in error.
   ** Warning ** ProcessScheduleInput: Schedule:File="SINKS_18" 30339 records had errors - these values are set to 0.
   **   ~~~   ** Use Output:Diagnostics,DisplayExtraWarnings; to see individual records in error.
   ** Warning ** ProcessScheduleInput: Schedule:File="CLOTHESWASHER_19" 34612 records had errors - these values are set to 0.
   **   ~~~   ** Use Output:Diagnostics,DisplayExtraWarnings; to see individual records in error.
   ** Warning ** ProcessScheduleInput: Schedule:File="DISHWASHER_19" 34648 records had errors - these values are set to 0.
   **   ~~~   ** Use Output:Diagnostics,DisplayExtraWarnings; to see individual records in error.
   ** Warning ** ProcessScheduleInput: Schedule:File="SHOWERS_19" 34462 records had errors - these values are set to 0.
   **   ~~~   ** Use Output:Diagnostics,DisplayExtraWarnings; to see individual records in error.
   ** Warning ** ProcessScheduleInput: Schedule:File="SINKS_19" 30351 records had errors - these values are set to 0.
   **   ~~~   ** Use Output:Diagnostics,DisplayExtraWarnings; to see individual records in error.
   ** Warning ** ProcessScheduleInput: Schedule:File="CLOTHESWASHER_20" 34582 records had errors - these values are set to 0.
   **   ~~~   ** Use Output:Diagnostics,DisplayExtraWarnings; to see individual records in error.
   ** Warning ** ProcessScheduleInput: Schedule:File="DISHWASHER_20" 34626 records had errors - these values are set to 0.
   **   ~~~   ** Use Output:Diagnostics,DisplayExtraWarnings; to see individual records in error.
   ** Warning ** ProcessScheduleInput: Schedule:File="SHOWERS_20" 34474 records had errors - these values are set to 0.
   **   ~~~   ** Use Output:Diagnostics,DisplayExtraWarnings; to see individual records in error.
   ** Warning ** ProcessScheduleInput: Schedule:File="SINKS_20" 30374 records had errors - these values are set to 0.
   **   ~~~   ** Use Output:Diagnostics,DisplayExtraWarnings; to see individual records in error.
   ** Warning ** ProcessScheduleInput: Schedule:File="CLOTHESWASHER_21" 34605 records had errors - these values are set to 0.
   **   ~~~   ** Use Output:Diagnostics,DisplayExtraWarnings; to see individual records in error.
   ** Warning ** ProcessScheduleInput: Schedule:File="DISHWASHER_21" 34640 records had errors - these values are set to 0.
   **   ~~~   ** Use Output:Diagnostics,DisplayExtraWarnings; to see individual records in error.
   ** Warning ** ProcessScheduleInput: Schedule:File="SHOWERS_21" 34474 records had errors - these values are set to 0.
   **   ~~~   ** Use Output:Diagnostics,DisplayExtraWarnings; to see individual records in error.
   ** Warning ** ProcessScheduleInput: Schedule:File="SINKS_21" 30311 records had errors - these values are set to 0.
   **   ~~~   ** Use Output:Diagnostics,DisplayExtraWarnings; to see individual records in error.
   ** Warning ** ProcessScheduleInput: Schedule:File="CLOTHESWASHER_22" 34621 records had errors - these values are set to 0.
   **   ~~~   ** Use Output:Diagnostics,DisplayExtraWarnings; to see individual records in error.
   ** Warning ** ProcessScheduleInput: Schedule:File="DISHWASHER_22" 34649 records had errors - these values are set to 0.
   **   ~~~   ** Use Output:Diagnostics,DisplayExtraWarnings; to see individual records in error.
   ** Warning ** ProcessScheduleInput: Schedule:File="SHOWERS_22" 34485 records had errors - these values are set to 0.
   **   ~~~   ** Use Output:Diagnostics,DisplayExtraWarnings; to see individual records in error.
   ** Warning ** ProcessScheduleInput: Schedule:File="SINKS_22" 30398 records had errors - these values are set to 0.
   **   ~~~   ** Use Output:Diagnostics,DisplayExtraWarnings; to see individual records in error.
   ** Warning ** ProcessScheduleInput: Schedule:File="CLOTHESWASHER_23" 34610 records had errors - these values are set to 0.
   **   ~~~   ** Use Output:Diagnostics,DisplayExtraWarnings; to see individual records in error.
   ** Warning ** ProcessScheduleInput: Schedule:File="DISHWASHER_23" 34620 records had errors - these values are set to 0.
   **   ~~~   ** Use Output:Diagnostics,DisplayExtraWarnings; to see individual records in error.
   ** Warning ** ProcessScheduleInput: Schedule:File="SHOWERS_23" 34467 records had errors - these values are set to 0.
   **   ~~~   ** Use Output:Diagnostics,DisplayExtraWarnings; to see individual records in error.
   ** Warning ** ProcessScheduleInput: Schedule:File="SINKS_23" 30373 records had errors - these values are set to 0.
   **   ~~~   ** Use Output:Diagnostics,DisplayExtraWarnings; to see individual records in error.
   ** Warning ** ProcessScheduleInput: Schedule:File="CLOTHESWASHER_24" 34622 records had errors - these values are set to 0.
   **   ~~~   ** Use Output:Diagnostics,DisplayExtraWarnings; to see individual records in error.
   ** Warning ** ProcessScheduleInput: Schedule:File="DISHWASHER_24" 34619 records had errors - these values are set to 0.
   **   ~~~   ** Use Output:Diagnostics,DisplayExtraWarnings; to see individual records in error.
   ** Warning ** ProcessScheduleInput: Schedule:File="SHOWERS_24" 34504 records had errors - these values are set to 0.
   **   ~~~   ** Use Output:Diagnostics,DisplayExtraWarnings; to see individual records in error.
   ** Warning ** ProcessScheduleInput: Schedule:File="SINKS_24" 30398 records had errors - these values are set to 0.
   **   ~~~   ** Use Output:Diagnostics,DisplayExtraWarnings; to see individual records in error.
   ** Warning ** ProcessScheduleInput: Schedule:File="CLOTHESWASHER_25" 34594 records had errors - these values are set to 0.
   **   ~~~   ** Use Output:Diagnostics,DisplayExtraWarnings; to see individual records in error.
   ** Warning ** ProcessScheduleInput: Schedule:File="DISHWASHER_25" 34622 records had errors - these values are set to 0.
   **   ~~~   ** Use Output:Diagnostics,DisplayExtraWarnings; to see individual records in error.
   ** Warning ** ProcessScheduleInput: Schedule:File="SHOWERS_25" 34472 records had errors - these values are set to 0.
   **   ~~~   ** Use Output:Diagnostics,DisplayExtraWarnings; to see individual records in error.
   ** Warning ** ProcessScheduleInput: Schedule:File="SINKS_25" 30339 records had errors - these values are set to 0.
   **   ~~~   ** Use Output:Diagnostics,DisplayExtraWarnings; to see individual records in error.
   ** Warning ** ProcessScheduleInput: Schedule:File="CLOTHESWASHER_26" 34581 records had errors - these values are set to 0.
   **   ~~~   ** Use Output:Diagnostics,DisplayExtraWarnings; to see individual records in error.
   ** Warning ** ProcessScheduleInput: Schedule:File="DISHWASHER_26" 34631 records had errors - these values are set to 0.
   **   ~~~   ** Use Output:Diagnostics,DisplayExtraWarnings; to see individual records in error.
   ** Warning ** ProcessScheduleInput: Schedule:File="SHOWERS_26" 34478 records had errors - these values are set to 0.
   **   ~~~   ** Use Output:Diagnostics,DisplayExtraWarnings; to see individual records in error.
   ** Warning ** ProcessScheduleInput: Schedule:File="SINKS_26" 30381 records had errors - these values are set to 0.
   **   ~~~   ** Use Output:Diagnostics,DisplayExtraWarnings; to see individual records in error.
   ** Warning ** ProcessScheduleInput: Schedule:File="CLOTHESWASHER_27" 34621 records had errors - these values are set to 0.
   **   ~~~   ** Use Output:Diagnostics,DisplayExtraWarnings; to see individual records in error.
   ** Warning ** ProcessScheduleInput: Schedule:File="DISHWASHER_27" 34632 records had errors - these values are set to 0.
   **   ~~~   ** Use Output:Diagnostics,DisplayExtraWarnings; to see individual records in error.
   ** Warning ** ProcessScheduleInput: Schedule:File="SHOWERS_27" 34497 records had errors - these values are set to 0.
   **   ~~~   ** Use Output:Diagnostics,DisplayExtraWarnings; to see individual records in error.
   ** Warning ** ProcessScheduleInput: Schedule:File="SINKS_27" 30368 records had errors - these values are set to 0.
   **   ~~~   ** Use Output:Diagnostics,DisplayExtraWarnings; to see individual records in error.
   ** Warning ** ProcessScheduleInput: Schedule:File="CLOTHESWASHER_28" 34621 records had errors - these values are set to 0.
   **   ~~~   ** Use Output:Diagnostics,DisplayExtraWarnings; to see individual records in error.
   ** Warning ** ProcessScheduleInput: Schedule:File="DISHWASHER_28" 34613 records had errors - these values are set to 0.
   **   ~~~   ** Use Output:Diagnostics,DisplayExtraWarnings; to see individual records in error.
   ** Warning ** ProcessScheduleInput: Schedule:File="SHOWERS_28" 34489 records had errors - these values are set to 0.
   **   ~~~   ** Use Output:Diagnostics,DisplayExtraWarnings; to see individual records in error.
   ** Warning ** ProcessScheduleInput: Schedule:File="SINKS_28" 30339 records had errors - these values are set to 0.
   **   ~~~   ** Use Output:Diagnostics,DisplayExtraWarnings; to see individual records in error.
   ** Warning ** ProcessScheduleInput: Schedule:File="CLOTHESWASHER_29" 34612 records had errors - these values are set to 0.
   **   ~~~   ** Use Output:Diagnostics,DisplayExtraWarnings; to see individual records in error.
   ** Warning ** ProcessScheduleInput: Schedule:File="DISHWASHER_29" 34648 records had errors - these values are set to 0.
   **   ~~~   ** Use Output:Diagnostics,DisplayExtraWarnings; to see individual records in error.
   ** Warning ** ProcessScheduleInput: Schedule:File="SHOWERS_29" 34462 records had errors - these values are set to 0.
   **   ~~~   ** Use Output:Diagnostics,DisplayExtraWarnings; to see individual records in error.
   ** Warning ** ProcessScheduleInput: Schedule:File="SINKS_29" 30351 records had errors - these values are set to 0.
   **   ~~~   ** Use Output:Diagnostics,DisplayExtraWarnings; to see individual records in error.
   ** Warning ** ProcessScheduleInput: Schedule:File="CLOTHESWASHER_30" 34582 records had errors - these values are set to 0.
   **   ~~~   ** Use Output:Diagnostics,DisplayExtraWarnings; to see individual records in error.
   ** Warning ** ProcessScheduleInput: Schedule:File="DISHWASHER_30" 34626 records had errors - these values are set to 0.
   **   ~~~   ** Use Output:Diagnostics,DisplayExtraWarnings; to see individual records in error.
   ** Warning ** ProcessScheduleInput: Schedule:File="SHOWERS_30" 34474 records had errors - these values are set to 0.
   **   ~~~   ** Use Output:Diagnostics,DisplayExtraWarnings; to see individual records in error.
   ** Warning ** ProcessScheduleInput: Schedule:File="SINKS_30" 30374 records had errors - these values are set to 0.
   **   ~~~   ** Use Output:Diagnostics,DisplayExtraWarnings; to see individual records in error.
   ** Warning ** ProcessScheduleInput: Schedule:File="CLOTHESWASHER_31" 34605 records had errors - these values are set to 0.
   **   ~~~   ** Use Output:Diagnostics,DisplayExtraWarnings; to see individual records in error.
   ** Warning ** ProcessScheduleInput: Schedule:File="DISHWASHER_31" 34640 records had errors - these values are set to 0.
   **   ~~~   ** Use Output:Diagnostics,DisplayExtraWarnings; to see individual records in error.
   ** Warning ** ProcessScheduleInput: Schedule:File="SHOWERS_31" 34474 records had errors - these values are set to 0.
   **   ~~~   ** Use Output:Diagnostics,DisplayExtraWarnings; to see individual records in error.
   ** Warning ** ProcessScheduleInput: Schedule:File="SINKS_31" 30311 records had errors - these values are set to 0.
   **   ~~~   ** Use Output:Diagnostics,DisplayExtraWarnings; to see individual records in error.
   ** Warning ** ProcessScheduleInput: Schedule:File="CLOTHESWASHER_32" 34621 records had errors - these values are set to 0.
   **   ~~~   ** Use Output:Diagnostics,DisplayExtraWarnings; to see individual records in error.
   ** Warning ** ProcessScheduleInput: Schedule:File="DISHWASHER_32" 34649 records had errors - these values are set to 0.
   **   ~~~   ** Use Output:Diagnostics,DisplayExtraWarnings; to see individual records in error.
   ** Warning ** ProcessScheduleInput: Schedule:File="SHOWERS_32" 34485 records had errors - these values are set to 0.
   **   ~~~   ** Use Output:Diagnostics,DisplayExtraWarnings; to see individual records in error.
   ** Warning ** ProcessScheduleInput: Schedule:File="SINKS_32" 30398 records had errors - these values are set to 0.
   **   ~~~   ** Use Output:Diagnostics,DisplayExtraWarnings; to see individual records in error.
   ** Warning ** ProcessScheduleInput: Schedule:File="CLOTHESWASHER_33" 34610 records had errors - these values are set to 0.
   **   ~~~   ** Use Output:Diagnostics,DisplayExtraWarnings; to see individual records in error.
   ** Warning ** ProcessScheduleInput: Schedule:File="DISHWASHER_33" 34620 records had errors - these values are set to 0.
   **   ~~~   ** Use Output:Diagnostics,DisplayExtraWarnings; to see individual records in error.
   ** Warning ** ProcessScheduleInput: Schedule:File="SHOWERS_33" 34467 records had errors - these values are set to 0.
   **   ~~~   ** Use Output:Diagnostics,DisplayExtraWarnings; to see individual records in error.
   ** Warning ** ProcessScheduleInput: Schedule:File="SINKS_33" 30373 records had errors - these values are set to 0.
   **   ~~~   ** Use Output:Diagnostics,DisplayExtraWarnings; to see individual records in error.
   ** Warning ** ProcessScheduleInput: Schedule:File="CLOTHESWASHER_34" 34622 records had errors - these values are set to 0.
   **   ~~~   ** Use Output:Diagnostics,DisplayExtraWarnings; to see individual records in error.
   ** Warning ** ProcessScheduleInput: Schedule:File="DISHWASHER_34" 34619 records had errors - these values are set to 0.
   **   ~~~   ** Use Output:Diagnostics,DisplayExtraWarnings; to see individual records in error.
   ** Warning ** ProcessScheduleInput: Schedule:File="SHOWERS_34" 34504 records had errors - these values are set to 0.
   **   ~~~   ** Use Output:Diagnostics,DisplayExtraWarnings; to see individual records in error.
   ** Warning ** ProcessScheduleInput: Schedule:File="SINKS_34" 30398 records had errors - these values are set to 0.
   **   ~~~   ** Use Output:Diagnostics,DisplayExtraWarnings; to see individual records in error.
[...]
   ** Warning ** Output:Meter: invalid Name="HEATINGSUPP:ELECTRICITY_22" - not found.
   ** Warning ** Output:Meter: invalid Name="HEATINGSUPP:ELECTRICITY_23" - not found.
   ** Warning ** Output:Meter: invalid Name="HEATINGSUPP:ELECTRICITY_24" - not found.
   ** Warning ** Output:Meter: invalid Name="HEATINGSUPP:ELECTRICITY_25" - not found.
   ** Warning ** Output:Meter: invalid Name="HEATINGSUPP:ELECTRICITY_26" - not found.
   ** Warning ** Output:Meter: invalid Name="HEATINGSUPP:ELECTRICITY_27" - not found.
   ** Warning ** Output:Meter: invalid Name="HEATINGSUPP:ELECTRICITY_28" - not found.
   ** Warning ** Output:Meter: invalid Name="HEATINGSUPP:ELECTRICITY_29" - not found.
   ** Warning ** Output:Meter: invalid Name="HEATINGSUPP:ELECTRICITY_30" - not found.
   ** Warning ** Output:Meter: invalid Name="HEATINGSUPP:ELECTRICITY_31" - not found.
   ** Warning ** Output:Meter: invalid Name="HEATINGSUPP:ELECTRICITY_32" - not found.
   ** Warning ** Output:Meter: invalid Name="HEATINGSUPP:ELECTRICITY_33" - not found.
   ** Warning ** Output:Meter: invalid Name="HEATINGSUPP:ELECTRICITY_34" - not found.
   ** Warning ** Output:Meter: invalid Name="HEATINGSUPP:ELECTRICITY_35" - not found.
   ** Warning ** Output:Meter: invalid Name="HEATINGSUPP:ELECTRICITY_36" - not found.
   ** Warning ** Output:Meter: invalid Name="HEATINGSUPP:ELECTRICITY_37" - not found.
   ** Warning ** Output:Meter: invalid Name="HEATINGSUPP:ELECTRICITY_38" - not found.
   ** Warning ** Output:Meter: invalid Name="HEATINGSUPP:ELECTRICITY_39" - not found.
   ** Warning ** Output:Meter: invalid Name="HEATINGSUPP:ELECTRICITY_40" - not found.
   ** Warning ** Output:Meter: invalid Name="WATERHEATING:ELECTRICITY" - not found.
   ** Warning ** Output:Meter: invalid Name="SDHWPUMP:ELECTRICITY" - not found.
   ** Warning ** Output:Meter: invalid Name="HPWHFAN:ELECTRICITY" - not found.
   ** Warning ** Output:Meter: invalid Name="VENTFANS_1:FANS:ELECTRICITY" - not found.
   ** Warning ** Output:Meter: invalid Name="VENTFANS_2:FANS:ELECTRICITY" - not found.
   ** Warning ** Output:Meter: invalid Name="VENTFANS_3:FANS:ELECTRICITY" - not found.
   ** Warning ** Output:Meter: invalid Name="VENTFANS_4:FANS:ELECTRICITY" - not found.
   ** Warning ** Output:Meter: invalid Name="VENTFANS_5:FANS:ELECTRICITY" - not found.
   ** Warning ** Output:Meter: invalid Name="VENTFANS_6:FANS:ELECTRICITY" - not found.
   ** Warning ** Output:Meter: invalid Name="VENTFANS_7:FANS:ELECTRICITY" - not found.
   ** Warning ** Output:Meter: invalid Name="VENTFANS_8:FANS:ELECTRICITY" - not found.
   ** Warning ** Output:Meter: invalid Name="VENTFANS_9:FANS:ELECTRICITY" - not found.
   ** Warning ** Output:Meter: invalid Name="VENTFANS_10:FANS:ELECTRICITY" - not found.
   ** Warning ** Output:Meter: invalid Name="VENTFANS_11:FANS:ELECTRICITY" - not found.
   ** Warning ** Output:Meter: invalid Name="VENTFANS_12:FANS:ELECTRICITY" - not found.
   ** Warning ** Output:Meter: invalid Name="VENTFANS_13:FANS:ELECTRICITY" - not found.
   ** Warning ** Output:Meter: invalid Name="VENTFANS_14:FANS:ELECTRICITY" - not found.
   ** Warning ** Output:Meter: invalid Name="VENTFANS_15:FANS:ELECTRICITY" - not found.
   ** Warning ** Output:Meter: invalid Name="VENTFANS_16:FANS:ELECTRICITY" - not found.
   ** Warning ** Output:Meter: invalid Name="VENTFANS_17:FANS:ELECTRICITY" - not found.
   ** Warning ** Output:Meter: invalid Name="VENTFANS_18:FANS:ELECTRICITY" - not found.
   ** Warning ** Output:Meter: invalid Name="VENTFANS_19:FANS:ELECTRICITY" - not found.
   ** Warning ** Output:Meter: invalid Name="VENTFANS_20:FANS:ELECTRICITY" - not found.
   ** Warning ** Output:Meter: invalid Name="VENTFANS_21:FANS:ELECTRICITY" - not found.
   ** Warning ** Output:Meter: invalid Name="VENTFANS_22:FANS:ELECTRICITY" - not found.
   ** Warning ** Output:Meter: invalid Name="VENTFANS_23:FANS:ELECTRICITY" - not found.
   ** Warning ** Output:Meter: invalid Name="VENTFANS_24:FANS:ELECTRICITY" - not found.
   ** Warning ** Output:Meter: invalid Name="VENTFANS_25:FANS:ELECTRICITY" - not found.
   ** Warning ** Output:Meter: invalid Name="VENTFANS_26:FANS:ELECTRICITY" - not found.
   ** Warning ** Output:Meter: invalid Name="VENTFANS_27:FANS:ELECTRICITY" - not found.
   ** Warning ** Output:Meter: invalid Name="VENTFANS_28:FANS:ELECTRICITY" - not found.
   ** Warning ** Output:Meter: invalid Name="VENTFANS_29:FANS:ELECTRICITY" - not found.
   ** Warning ** Output:Meter: invalid Name="VENTFANS_30:FANS:ELECTRICITY" - not found.
   ** Warning ** Output:Meter: invalid Name="VENTFANS_31:FANS:ELECTRICITY" - not found.
   ** Warning ** Output:Meter: invalid Name="VENTFANS_32:FANS:ELECTRICITY" - not found.
   ** Warning ** Output:Meter: invalid Name="VENTFANS_33:FANS:ELECTRICITY" - not found.
   ** Warning ** Output:Meter: invalid Name="VENTFANS_34:FANS:ELECTRICITY" - not found.
   ** Warning ** Output:Meter: invalid Name="VENTFANS_35:FANS:ELECTRICITY" - not found.
   ** Warning ** Output:Meter: invalid Name="VENTFANS_36:FANS:ELECTRICITY" - not found.
   ** Warning ** Output:Meter: invalid Name="VENTFANS_37:FANS:ELECTRICITY" - not found.
   ** Warning ** Output:Meter: invalid Name="VENTFANS_38:FANS:ELECTRICITY" - not found.
   ** Warning ** Output:Meter: invalid Name="VENTFANS_39:FANS:ELECTRICITY" - not found.
   ** Warning ** Output:Meter: invalid Name="VENTFANS_40:FANS:ELECTRICITY" - not found.
   ** Warning ** Output:Meter: invalid Name="WATERHEATING:GAS" - not found.
   ** Warning ** Output:Meter: invalid Name="APPL_1:INTERIOREQUIPMENT:GAS" - not found.
   ** Warning ** Output:Meter: invalid Name="APPL_2:INTERIOREQUIPMENT:GAS" - not found.
   ** Warning ** Output:Meter: invalid Name="APPL_3:INTERIOREQUIPMENT:GAS" - not found.
   ** Warning ** Output:Meter: invalid Name="APPL_4:INTERIOREQUIPMENT:GAS" - not found.
   ** Warning ** Output:Meter: invalid Name="APPL_5:INTERIOREQUIPMENT:GAS" - not found.
   ** Warning ** Output:Meter: invalid Name="APPL_6:INTERIOREQUIPMENT:GAS" - not found.
   ** Warning ** Output:Meter: invalid Name="APPL_7:INTERIOREQUIPMENT:GAS" - not found.
   ** Warning ** Output:Meter: invalid Name="APPL_8:INTERIOREQUIPMENT:GAS" - not found.
   ** Warning ** Output:Meter: invalid Name="APPL_9:INTERIOREQUIPMENT:GAS" - not found.
   ** Warning ** Output:Meter: invalid Name="APPL_10:INTERIOREQUIPMENT:GAS" - not found.
   ** Warning ** Output:Meter: invalid Name="APPL_11:INTERIOREQUIPMENT:GAS" - not found.
   ** Warning ** Output:Meter: invalid Name="APPL_12:INTERIOREQUIPMENT:GAS" - not found.
   ** Warning ** Output:Meter: invalid Name="APPL_13:INTERIOREQUIPMENT:GAS" - not found.
   ** Warning ** Output:Meter: invalid Name="APPL_14:INTERIOREQUIPMENT:GAS" - not found.
   ** Warning ** Output:Meter: invalid Name="APPL_15:INTERIOREQUIPMENT:GAS" - not found.
   ** Warning ** Output:Meter: invalid Name="APPL_16:INTERIOREQUIPMENT:GAS" - not found.
   ** Warning ** Output:Meter: invalid Name="APPL_17:INTERIOREQUIPMENT:GAS" - not found.
   ** Warning ** Output:Meter: invalid Name="APPL_18:INTERIOREQUIPMENT:GAS" - not found.
   ** Warning ** Output:Meter: invalid Name="APPL_19:INTERIOREQUIPMENT:GAS" - not found.
   ** Warning ** Output:Meter: invalid Name="APPL_20:INTERIOREQUIPMENT:GAS" - not found.
   ** Warning ** Output:Meter: invalid Name="APPL_21:INTERIOREQUIPMENT:GAS" - not found.
   ** Warning ** Output:Meter: invalid Name="APPL_22:INTERIOREQUIPMENT:GAS" - not found.
   ** Warning ** Output:Meter: invalid Name="APPL_23:INTERIOREQUIPMENT:GAS" - not found.
   ** Warning ** Output:Meter: invalid Name="APPL_24:INTERIOREQUIPMENT:GAS" - not found.
   ** Warning ** Output:Meter: invalid Name="APPL_25:INTERIOREQUIPMENT:GAS" - not found.
   ** Warning ** Output:Meter: invalid Name="APPL_26:INTERIOREQUIPMENT:GAS" - not found.
   ** Warning ** Output:Meter: invalid Name="APPL_27:INTERIOREQUIPMENT:GAS" - not found.
   ** Warning ** Output:Meter: invalid Name="APPL_28:INTERIOREQUIPMENT:GAS" - not found.
   ** Warning ** Output:Meter: invalid Name="APPL_29:INTERIOREQUIPMENT:GAS" - not found.
   ** Warning ** Output:Meter: invalid Name="APPL_30:INTERIOREQUIPMENT:GAS" - not found.
   ** Warning ** Output:Meter: invalid Name="APPL_31:INTERIOREQUIPMENT:GAS" - not found.
   ** Warning ** Output:Meter: invalid Name="APPL_32:INTERIOREQUIPMENT:GAS" - not found.
   ** Warning ** Output:Meter: invalid Name="APPL_33:INTERIOREQUIPMENT:GAS" - not found.
   ** Warning ** Output:Meter: invalid Name="APPL_34:INTERIOREQUIPMENT:GAS" - not found.
   ** Warning ** Output:Meter: invalid Name="APPL_35:INTERIOREQUIPMENT:GAS" - not found.
   ** Warning ** Output:Meter: invalid Name="APPL_36:INTERIOREQUIPMENT:GAS" - not found.
   ** Warning ** Output:Meter: invalid Name="APPL_37:INTERIOREQUIPMENT:GAS" - not found.
   ** Warning ** Output:Meter: invalid Name="APPL_38:INTERIOREQUIPMENT:GAS" - not found.
   ** Warning ** Output:Meter: invalid Name="APPL_39:INTERIOREQUIPMENT:GAS" - not found.
   ** Warning ** Output:Meter: invalid Name="APPL_40:INTERIOREQUIPMENT:GAS" - not found.
   ** Warning ** Output:Meter: invalid Name="WATERHEATING:FUELOIL" - not found.
   ** Warning ** Output:Meter: invalid Name="WATERHEATING:PROPANE" - not found.
   ** Warning ** Output:Meter: invalid Name="APPL_1:EXTERIOREQUIPMENT:PROPANE" - not found.
   ** Warning ** Output:Meter: invalid Name="APPL_2:EXTERIOREQUIPMENT:PROPANE" - not found.
   ** Warning ** Output:Meter: invalid Name="APPL_3:EXTERIOREQUIPMENT:PROPANE" - not found.
   ** Warning ** Output:Meter: invalid Name="APPL_4:EXTERIOREQUIPMENT:PROPANE" - not found.
   ** Warning ** Output:Meter: invalid Name="APPL_5:EXTERIOREQUIPMENT:PROPANE" - not found.
   ** Warning ** Output:Meter: invalid Name="APPL_6:EXTERIOREQUIPMENT:PROPANE" - not found.
   ** Warning ** Output:Meter: invalid Name="APPL_7:EXTERIOREQUIPMENT:PROPANE" - not found.
   ** Warning ** Output:Meter: invalid Name="APPL_8:EXTERIOREQUIPMENT:PROPANE" - not found.
   ** Warning ** Output:Meter: invalid Name="APPL_9:EXTERIOREQUIPMENT:PROPANE" - not found.
   ** Warning ** Output:Meter: invalid Name="APPL_10:EXTERIOREQUIPMENT:PROPANE" - not found.
   ** Warning ** Output:Meter: invalid Name="APPL_11:EXTERIOREQUIPMENT:PROPANE" - not found.
   ** Warning ** Output:Meter: invalid Name="APPL_12:EXTERIOREQUIPMENT:PROPANE" - not found.
   ** Warning ** Output:Meter: invalid Name="APPL_13:EXTERIOREQUIPMENT:PROPANE" - not found.
   ** Warning ** Output:Meter: invalid Name="APPL_14:EXTERIOREQUIPMENT:PROPANE" - not found.
   ** Warning ** Output:Meter: invalid Name="APPL_15:EXTERIOREQUIPMENT:PROPANE" - not found.
   ** Warning ** Output:Meter: invalid Name="APPL_16:EXTERIOREQUIPMENT:PROPANE" - not found.
   ** Warning ** Output:Meter: invalid Name="APPL_17:EXTERIOREQUIPMENT:PROPANE" - not found.
   ** Warning ** Output:Meter: invalid Name="APPL_18:EXTERIOREQUIPMENT:PROPANE" - not found.
   ** Warning ** Output:Meter: invalid Name="APPL_19:EXTERIOREQUIPMENT:PROPANE" - not found.
   ** Warning ** Output:Meter: invalid Name="APPL_20:EXTERIOREQUIPMENT:PROPANE" - not found.
   ** Warning ** Output:Meter: invalid Name="APPL_21:EXTERIOREQUIPMENT:PROPANE" - not found.
   ** Warning ** Output:Meter: invalid Name="APPL_22:EXTERIOREQUIPMENT:PROPANE" - not found.
   ** Warning ** Output:Meter: invalid Name="APPL_23:EXTERIOREQUIPMENT:PROPANE" - not found.
   ** Warning ** Output:Meter: invalid Name="APPL_24:EXTERIOREQUIPMENT:PROPANE" - not found.
   ** Warning ** Output:Meter: invalid Name="APPL_25:EXTERIOREQUIPMENT:PROPANE" - not found.
   ** Warning ** Output:Meter: invalid Name="APPL_26:EXTERIOREQUIPMENT:PROPANE" - not found.
   ** Warning ** Output:Meter: invalid Name="APPL_27:EXTERIOREQUIPMENT:PROPANE" - not found.
   ** Warning ** Output:Meter: invalid Name="APPL_28:EXTERIOREQUIPMENT:PROPANE" - not found.
   ** Warning ** Output:Meter: invalid Name="APPL_29:EXTERIOREQUIPMENT:PROPANE" - not found.
   ** Warning ** Output:Meter: invalid Name="APPL_30:EXTERIOREQUIPMENT:PROPANE" - not found.
   ** Warning ** Output:Meter: invalid Name="APPL_31:EXTERIOREQUIPMENT:PROPANE" - not found.
   ** Warning ** Output:Meter: invalid Name="APPL_32:EXTERIOREQUIPMENT:PROPANE" - not found.
   ** Warning ** Output:Meter: invalid Name="APPL_33:EXTERIOREQUIPMENT:PROPANE" - not found.
   ** Warning ** Output:Meter: invalid Name="APPL_34:EXTERIOREQUIPMENT:PROPANE" - not found.
   ** Warning ** Output:Meter: invalid Name="APPL_35:EXTERIOREQUIPMENT:PROPANE" - not found.
   ** Warning ** Output:Meter: invalid Name="APPL_36:EXTERIOREQUIPMENT:PROPANE" - not found.
   ** Warning ** Output:Meter: invalid Name="APPL_37:EXTERIOREQUIPMENT:PROPANE" - not found.
   ** Warning ** Output:Meter: invalid Name="APPL_38:EXTERIOREQUIPMENT:PROPANE" - not found.
   ** Warning ** Output:Meter: invalid Name="APPL_39:EXTERIOREQUIPMENT:PROPANE" - not found.
   ** Warning ** Output:Meter: invalid Name="APPL_40:EXTERIOREQUIPMENT:PROPANE" - not found.
   ** Warning ** Output:Meter: invalid Name="GAS:COMMON" - not found.
   ** Warning ** Output:Meter: invalid Name="PROPANE:COMMON" - not found.
   ** Warning ** Output:Meter: invalid Name="FUELOIL:COMMON" - not found.
   ************* Testing Individual Branch Integrity
   ************* All Branches passed integrity testing
   ************* Testing Individual Supply Air Path Integrity
   ************* All Supply Air Paths passed integrity testing
   ************* Testing Individual Return Air Path Integrity
   ************* All Return Air Paths passed integrity testing
   ************* No node connection errors were found.
   ************* Beginning Simulation
   ** Warning ** GENERATOR:PHOTOVOLTAIC named PV SYSTEM is producing negative electric power, check generator inputs.
   **   ~~~   ** Electric power production rate =-0.3844
   **   ~~~   ** The power will be set to zero, and the simulation continues... 
   ** Warning ** GetCurrentScheduleValue: Schedule="TOTAL_MELS_1" is a Schedule:File
   **   ~~~   ** ...Use of Schedule:File when DaylightSavingTime is in effect is not recommended.
   **   ~~~   ** ...1) Remove RunperiodControl:DaylightSavingTime object or remove DST period from Weather File.
   **   ~~~   ** ...2) Configure other schedules and Schedule:File to account for occupant behavior during DST.
   **   ~~~   ** ...   If you have already done this, you can ignore this message.
   **   ~~~   ** ...When active, DaylightSavingTime will shift all scheduled items by one hour, retaining the same day type as the original.
   ************* Simulation Error Summary *************
   ** Warning ** The following Report Variables were requested but not generated
   **   ~~~   ** because IDF did not contain these elements or misspelled variable name -- check .rdd file
   ************* Key=NONE, VarName=ELECELEMUSAGEOUTPUTVARIABLE_1, Frequency=Hourly
   ************* Key=NONE, VarName=ELECELEMUSAGEOUTPUTVARIABLE_2, Frequency=Hourly
   ************* Key=NONE, VarName=ELECELEMUSAGEOUTPUTVARIABLE_3, Frequency=Hourly
   ************* Key=NONE, VarName=ELECELEMUSAGEOUTPUTVARIABLE_4, Frequency=Hourly
   ************* Key=NONE, VarName=ELECELEMUSAGEOUTPUTVARIABLE_5, Frequency=Hourly
   ************* Key=NONE, VarName=ELECELEMUSAGEOUTPUTVARIABLE_6, Frequency=Hourly
   ************* Key=NONE, VarName=ELECELEMUSAGEOUTPUTVARIABLE_7, Frequency=Hourly
   ************* Key=NONE, VarName=ELECELEMUSAGEOUTPUTVARIABLE_8, Frequency=Hourly
   ************* Key=NONE, VarName=ELECELEMUSAGEOUTPUTVARIABLE_9, Frequency=Hourly
   ************* Key=NONE, VarName=ELECELEMUSAGEOUTPUTVARIABLE_10, Frequency=Hourly
   ************* Key=NONE, VarName=ELECELEMUSAGEOUTPUTVARIABLE_11, Frequency=Hourly
   ************* Key=NONE, VarName=ELECELEMUSAGEOUTPUTVARIABLE_12, Frequency=Hourly
   ************* Key=NONE, VarName=ELECELEMUSAGEOUTPUTVARIABLE_13, Frequency=Hourly
   ************* Key=NONE, VarName=ELECELEMUSAGEOUTPUTVARIABLE_14, Frequency=Hourly
   ************* Key=NONE, VarName=ELECELEMUSAGEOUTPUTVARIABLE_15, Frequency=Hourly
   ************* Key=NONE, VarName=ELECELEMUSAGEOUTPUTVARIABLE_16, Frequency=Hourly
   ************* Key=NONE, VarName=ELECELEMUSAGEOUTPUTVARIABLE_17, Frequency=Hourly
   ************* Key=NONE, VarName=ELECELEMUSAGEOUTPUTVARIABLE_18, Frequency=Hourly
   ************* Key=NONE, VarName=ELECELEMUSAGEOUTPUTVARIABLE_19, Frequency=Hourly
   ************* Key=NONE, VarName=ELECELEMUSAGEOUTPUTVARIABLE_20, Frequency=Hourly
   ************* Key=NONE, VarName=ELECELEMUSAGEOUTPUTVARIABLE_21, Frequency=Hourly
   ************* Key=NONE, VarName=ELECELEMUSAGEOUTPUTVARIABLE_22, Frequency=Hourly
   ************* Key=NONE, VarName=ELECELEMUSAGEOUTPUTVARIABLE_23, Frequency=Hourly
   ************* Key=NONE, VarName=ELECELEMUSAGEOUTPUTVARIABLE_24, Frequency=Hourly
   ************* Key=NONE, VarName=ELECELEMUSAGEOUTPUTVARIABLE_25, Frequency=Hourly
   ************* Key=NONE, VarName=ELECELEMUSAGEOUTPUTVARIABLE_26, Frequency=Hourly
   ************* Key=NONE, VarName=ELECELEMUSAGEOUTPUTVARIABLE_27, Frequency=Hourly
   ************* Key=NONE, VarName=ELECELEMUSAGEOUTPUTVARIABLE_28, Frequency=Hourly
   ************* Key=NONE, VarName=ELECELEMUSAGEOUTPUTVARIABLE_29, Frequency=Hourly
   ************* Key=NONE, VarName=ELECELEMUSAGEOUTPUTVARIABLE_30, Frequency=Hourly
   ************* Key=NONE, VarName=ELECELEMUSAGEOUTPUTVARIABLE_31, Frequency=Hourly
   ************* Key=NONE, VarName=ELECELEMUSAGEOUTPUTVARIABLE_32, Frequency=Hourly
   ************* Key=NONE, VarName=ELECELEMUSAGEOUTPUTVARIABLE_33, Frequency=Hourly
   ************* Key=NONE, VarName=ELECELEMUSAGEOUTPUTVARIABLE_34, Frequency=Hourly
   ************* Key=NONE, VarName=ELECELEMUSAGEOUTPUTVARIABLE_35, Frequency=Hourly
   ************* Key=NONE, VarName=ELECELEMUSAGEOUTPUTVARIABLE_36, Frequency=Hourly
   ************* Key=NONE, VarName=ELECELEMUSAGEOUTPUTVARIABLE_37, Frequency=Hourly
   ************* Key=NONE, VarName=ELECELEMUSAGEOUTPUTVARIABLE_38, Frequency=Hourly
   ************* Key=NONE, VarName=ELECELEMUSAGEOUTPUTVARIABLE_39, Frequency=Hourly
   ************* Key=NONE, VarName=ELECELEMUSAGEOUTPUTVARIABLE_40, Frequency=Hourly
   ************* There are 882 unused schedules in input.
   ************* There are 6602 unused week schedules in input.
   ************* There are 12842 unused day schedules in input.
   ************* Use Output:Diagnostics,DisplayUnusedSchedules; to see them.
   *************
   ************* ===== Recurring Error Summary =====
   ************* The following recurring error messages occurred.
   *************
   *************  ** Warning ** GENERATOR:PHOTOVOLTAIC named PV SYSTEM is producing negative electric power 
   *************  **   ~~~   **   This error occurred 85 total times;
   *************  **   ~~~   **   during Warmup 0 times;
   *************  **   ~~~   **   during Sizing 0 times.
   *************  **   ~~~   **   Max=-0.233047  Min=-0.928772
   *************
   *************
   ************* ===== Final Error Summary =====
   ************* The following error categories occurred.  Consider correcting or noting.
   ************* Nominally Unused Constructions
   ************* ..The nominally unused constructions warning is provided to alert you to potential conditions that can cause
   ************* ..extra time during simulation. Each construction is calculated by the algorithm indicated in the HeatBalanceAlgorithm
   ************* ..object. You may remove the constructions indicated (when you use the DisplayExtraWarnings option).
   *************
   ************* EnergyPlus Warmup Error Summary. During Warmup: 0 Warning; 0 Severe Errors.
   ************* EnergyPlus Sizing Error Summary. During Sizing: 2 Warning; 0 Severe Errors.
   ************* EnergyPlus Completed Successfully-- 575 Warning; 0 Severe Errors; Elapsed Time=00hr 27min 32.22sec
